=
     RDKit          3D

 62 66  0  0  0  0  0  0  0  0999 V2000
    1.0370   67.5560   67.8360 C   0  0  0  0  0  0  0  0  0  0  0  0
    0.3110   68.5320   68.0290 O   0  0  0  0  0  0  0  0  0  0  0  0
    1.1600   66.5030   68.7010 N   0  0  0  0  0  0  0  0  0  0  0  0
    1.8790   67.4850   66.5570 C   0  0  1  0  0  0  0  0  0  0  0  0
    1.1400   66.6480   65.5370 N   0  0  0  0  0  4  0  0  0  0  0  0
    2.1270   68.8940   66.0030 C   0  0  0  0  0  0  0  0  0  0  0  0
    3.5810   69.2460   65.9600 C   0  0  0  0  0  0  0  0  0  0  0  0
    4.4360   69.0680   64.8890 C   0  0  0  0  0  0  0  0  0  0  0  0
    5.6820   69.5050   65.2560 N   0  0  0  0  0  0  0  0  0  0  0  0
    5.6650   69.9320   66.5640 C   0  0  0  0  0  0  0  0  0  0  0  0
    4.3530   69.8140   67.0220 C   0  0  0  0  0  0  0  0  0  0  0  0
    4.0600   70.2400   68.3340 C   0  0  0  0  0  0  0  0  0  0  0  0
    5.0870   70.7440   69.1410 C   0  0  0  0  0  0  0  0  0  0  0  0
    6.3900   70.8330   68.6570 C   0  0  0  0  0  0  0  0  0  0  0  0
    6.7030   70.4330   67.3560 C   0  0  0  0  0  0  0  0  0  0  0  0
    0.3180   66.3960   69.8860 C   0  0  0  0  0  0  0  0  0  0  0  0
    0.6930   65.2310   70.8230 C   0  0  0  0  0  0  0  0  0  0  0  0
    0.5290   63.8800   70.2440 N   0  0  0  0  0  0  0  0  0  0  0  0
    1.2010   62.7920   70.8490 C   0  0  0  0  0  0  0  0  0  0  0  0
    2.5530   62.4980   70.6320 C   0  0  0  0  0  0  0  0  0  0  0  0
    3.5150   63.3450   69.8430 C   0  0  0  0  0  0  0  0  0  0  0  0
    4.8910   63.4150   70.5170 C   0  0  0  0  0  0  0  0  0  0  0  0
    5.4330   62.0710   71.0170 C   0  0  0  0  0  0  0  0  0  0  0  0
    4.4650   60.9050   70.8510 C   0  0  0  0  0  0  0  0  0  0  0  0
    3.0540   61.3160   71.1830 C   0  0  0  0  0  0  0  0  0  0  0  0
    2.3360   60.4890   71.9720 N   0  0  0  0  0  0  0  0  0  0  0  0
    1.0910   60.8470   72.3020 C   0  0  0  0  0  0  0  0  0  0  0  0
    0.4690   61.9970   71.7770 C   0  0  0  0  0  0  0  0  0  0  0  0
   -0.8490   62.3070   72.1940 C   0  0  0  0  0  0  0  0  0  0  0  0
   -1.5310   61.5000   73.1030 C   0  0  0  0  0  0  0  0  0  0  0  0
   -0.9120   60.3630   73.6000 C   0  0  0  0  0  0  0  0  0  0  0  0
    0.3860   60.0480   73.1930 C   0  0  0  0  0  0  0  0  0  0  0  0
    1.8607   65.7723   68.5112 H   0  0  0  0  0  0  0  0  0  0  0  0
    2.8539   67.0274   66.7809 H   0  0  0  0  0  0  0  0  0  0  0  0
    0.5387   65.9670   66.0224 H   0  0  0  0  0  0  0  0  0  0  0  0
    0.5585   67.2601   64.9469 H   0  0  0  0  0  0  0  0  0  0  0  0
    1.8194   66.1469   64.9469 H   0  0  0  0  0  0  0  0  0  0  0  0
    1.7208   68.9481   64.9822 H   0  0  0  0  0  0  0  0  0  0  0  0
    1.6300   69.6092   66.6749 H   0  0  0  0  0  0  0  0  0  0  0  0
    4.1632   68.6476   63.9098 H   0  0  0  0  0  0  0  0  0  0  0  0
    6.5096   69.5127   64.6428 H   0  0  0  0  0  0  0  0  0  0  0  0
    3.0321   70.1768   68.7205 H   0  0  0  0  0  0  0  0  0  0  0  0
    4.8629   71.0727   70.1665 H   0  0  0  0  0  0  0  0  0  0  0  0
    7.1846   71.2243   69.3093 H   0  0  0  0  0  0  0  0  0  0  0  0
    7.7295   70.5093   66.9681 H   0  0  0  0  0  0  0  0  0  0  0  0
    0.3993   67.3350   70.4531 H   0  0  0  0  0  0  0  0  0  0  0  0
   -0.7046   66.2003   69.5311 H   0  0  0  0  0  0  0  0  0  0  0  0
    1.7476   65.3520   71.1114 H   0  0  0  0  0  0  0  0  0  0  0  0
   -0.0036   65.2859   71.6725 H   0  0  0  0  0  0  0  0  0  0  0  0
   -0.0642   63.7338   69.4147 H   0  0  0  0  0  0  0  0  0  0  0  0
    3.6312   62.9115   68.8387 H   0  0  0  0  0  0  0  0  0  0  0  0
    3.1078   64.3653   69.7863 H   0  0  0  0  0  0  0  0  0  0  0  0
    5.6078   63.8233   69.7893 H   0  0  0  0  0  0  0  0  0  0  0  0
    4.7668   64.0486   71.4076 H   0  0  0  0  0  0  0  0  0  0  0  0
    6.3509   61.8395   70.4568 H   0  0  0  0  0  0  0  0  0  0  0  0
    5.6092   62.1837   72.0969 H   0  0  0  0  0  0  0  0  0  0  0  0
    4.5008   60.5547   69.8089 H   0  0  0  0  0  0  0  0  0  0  0  0
    4.7652   60.1025   71.5408 H   0  0  0  0  0  0  0  0  0  0  0  0
   -1.3444   63.2031   71.7921 H   0  0  0  0  0  0  0  0  0  0  0  0
   -2.5502   61.7624   73.4230 H   0  0  0  0  0  0  0  0  0  0  0  0
   -1.4411   59.7122   74.3117 H   0  0  0  0  0  0  0  0  0  0  0  0
    0.8643   59.1403   73.5897 H   0  0  0  0  0  0  0  0  0  0  0  0
  2  1  2  0
  3  1  1  0
  4  1  1  0
  5  4  1  0
  6  4  1  0
  7  6  1  0
  8  7  2  0
  9  8  1  0
 10  9  1  0
 11  7  1  0
 11 10  2  0
 12 11  1  0
 13 12  2  0
 14 13  1  0
 15 14  2  0
 15 10  1  0
 16  3  1  0
 17 16  1  0
 18 17  1  0
 19 18  1  0
 20 19  1  0
 21 20  1  0
 22 21  1  0
 23 22  1  0
 24 23  1  0
 25 20  2  0
 25 24  1  0
 26 25  1  0
 27 26  2  0
 28 19  2  0
 28 27  1  0
 29 28  1  0
 30 29  2  0
 31 30  1  0
 32 31  2  0
 32 27  1  0
  3 33  1  0
  4 34  1  1
  5 35  1  0
  5 36  1  0
  5 37  1  0
  6 38  1  0
  6 39  1  0
  8 40  1  0
  9 41  1  0
 12 42  1  0
 13 43  1  0
 14 44  1  0
 15 45  1  0
 16 46  1  0
 16 47  1  0
 17 48  1  0
 17 49  1  0
 18 50  1  0
 21 51  1  0
 21 52  1  0
 22 53  1  0
 22 54  1  0
 23 55  1  0
 23 56  1  0
 24 57  1  0
 24 58  1  0
 29 59  1  0
 30 60  1  0
 31 61  1  0
 32 62  1  0
M  CHG  1   5   1
M  END
>  <score>  (1) 
-12.903

$$$$
=
     RDKit          3D

 62 66  0  0  0  0  0  0  0  0999 V2000
    0.8030   66.1250   69.8610 C   0  0  0  0  0  0  0  0  0  0  0  0
    1.5880   67.0330   70.1380 O   0  0  0  0  0  0  0  0  0  0  0  0
   -0.1600   66.2080   68.8930 N   0  0  0  0  0  0  0  0  0  0  0  0
    0.8750   64.8050   70.6350 C   0  0  1  0  0  0  0  0  0  0  0  0
   -0.0650   63.8130   69.9890 N   0  0  0  0  0  4  0  0  0  0  0  0
    2.3090   64.2580   70.6250 C   0  0  0  0  0  0  0  0  0  0  0  0
    2.4380   62.9740   71.3830 C   0  0  0  0  0  0  0  0  0  0  0  0
    2.2280   62.7980   72.7370 C   0  0  0  0  0  0  0  0  0  0  0  0
    2.4590   61.4810   73.0400 N   0  0  0  0  0  0  0  0  0  0  0  0
    2.8530   60.8000   71.9120 C   0  0  0  0  0  0  0  0  0  0  0  0
    2.8160   61.7010   70.8480 C   0  0  0  0  0  0  0  0  0  0  0  0
    3.1320   61.2310   69.5570 C   0  0  0  0  0  0  0  0  0  0  0  0
    3.4910   59.8890   69.3820 C   0  0  0  0  0  0  0  0  0  0  0  0
    3.5340   59.0180   70.4680 C   0  0  0  0  0  0  0  0  0  0  0  0
    3.2100   59.4570   71.7540 C   0  0  0  0  0  0  0  0  0  0  0  0
   -0.2430   67.3620   68.0060 C   0  0  0  0  0  0  0  0  0  0  0  0
    0.7990   67.3610   66.8700 C   0  0  0  0  0  0  0  0  0  0  0  0
    1.1660   68.6980   66.3520 N   0  0  0  0  0  0  0  0  0  0  0  0
    2.4460   68.8790   65.7770 C   0  0  0  0  0  0  0  0  0  0  0  0
    2.7430   68.5900   64.4400 C   0  0  0  0  0  0  0  0  0  0  0  0
    1.7450   68.1730   63.3940 C   0  0  0  0  0  0  0  0  0  0  0  0
    2.0240   68.8450   62.0450 C   0  0  0  0  0  0  0  0  0  0  0  0
    3.4940   68.8350   61.6110 C   0  0  0  0  0  0  0  0  0  0  0  0
    4.4470   68.2460   62.6460 C   0  0  0  0  0  0  0  0  0  0  0  0
    4.0780   68.6850   64.0390 C   0  0  0  0  0  0  0  0  0  0  0  0
    5.0770   69.1120   64.8410 N   0  0  0  0  0  0  0  0  0  0  0  0
    4.7680   69.5320   66.0720 C   0  0  0  0  0  0  0  0  0  0  0  0
    3.4640   69.4480   66.5960 C   0  0  0  0  0  0  0  0  0  0  0  0
    3.2260   69.9300   67.9070 C   0  0  0  0  0  0  0  0  0  0  0  0
    4.2520   70.4780   68.6760 C   0  0  0  0  0  0  0  0  0  0  0  0
    5.5340   70.5410   68.1520 C   0  0  0  0  0  0  0  0  0  0  0  0
    5.7780   70.0650   66.8620 C   0  0  0  0  0  0  0  0  0  0  0  0
   -0.8392   65.4407   68.7889 H   0  0  0  0  0  0  0  0  0  0  0  0
    0.5793   64.9732   71.6811 H   0  0  0  0  0  0  0  0  0  0  0  0
   -0.5640   63.2864   70.7202 H   0  0  0  0  0  0  0  0  0  0  0  0
   -0.7462   64.3168   69.4033 H   0  0  0  0  0  0  0  0  0  0  0  0
    0.4747   63.1599   69.4033 H   0  0  0  0  0  0  0  0  0  0  0  0
    2.6129   64.0841   69.5822 H   0  0  0  0  0  0  0  0  0  0  0  0
    2.9539   65.0019   71.1156 H   0  0  0  0  0  0  0  0  0  0  0  0
    1.9271   63.5801   73.4496 H   0  0  0  0  0  0  0  0  0  0  0  0
    2.3530   61.0629   73.9753 H   0  0  0  0  0  0  0  0  0  0  0  0
    3.0968   61.9128   68.6945 H   0  0  0  0  0  0  0  0  0  0  0  0
    3.7416   59.5189   68.3769 H   0  0  0  0  0  0  0  0  0  0  0  0
    3.8273   57.9695   70.3108 H   0  0  0  0  0  0  0  0  0  0  0  0
    3.2348   58.7701   72.6128 H   0  0  0  0  0  0  0  0  0  0  0  0
   -1.2459   67.3788   67.5544 H   0  0  0  0  0  0  0  0  0  0  0  0
   -0.0386   68.2500   68.6221 H   0  0  0  0  0  0  0  0  0  0  0  0
    1.7132   66.8791   67.2469 H   0  0  0  0  0  0  0  0  0  0  0  0
    0.3347   66.8243   66.0296 H   0  0  0  0  0  0  0  0  0  0  0  0
    0.5013   69.4828   66.4091 H   0  0  0  0  0  0  0  0  0  0  0  0
    1.7973   67.0817   63.2663 H   0  0  0  0  0  0  0  0  0  0  0  0
    0.7448   68.4828   63.7313 H   0  0  0  0  0  0  0  0  0  0  0  0
    1.4368   68.3229   61.2752 H   0  0  0  0  0  0  0  0  0  0  0  0
    1.7443   69.9023   62.1632 H   0  0  0  0  0  0  0  0  0  0  0  0
    3.5773   68.2420   60.6883 H   0  0  0  0  0  0  0  0  0  0  0  0
    3.7895   69.8852   61.4705 H   0  0  0  0  0  0  0  0  0  0  0  0
    4.4014   67.1483   62.5919 H   0  0  0  0  0  0  0  0  0  0  0  0
    5.4638   68.6035   62.4262 H   0  0  0  0  0  0  0  0  0  0  0  0
    2.2110   69.8707   68.3268 H   0  0  0  0  0  0  0  0  0  0  0  0
    4.0463   70.8565   69.6881 H   0  0  0  0  0  0  0  0  0  0  0  0
    6.3551   70.9639   68.7495 H   0  0  0  0  0  0  0  0  0  0  0  0
    6.8006   70.1137   66.4597 H   0  0  0  0  0  0  0  0  0  0  0  0
  2  1  2  0
  3  1  1  0
  4  1  1  0
  5  4  1  0
  6  4  1  0
  7  6  1  0
  8  7  2  0
  9  8  1  0
 10  9  1  0
 11  7  1  0
 11 10  2  0
 12 11  1  0
 13 12  2  0
 14 13  1  0
 15 14  2  0
 15 10  1  0
 16  3  1  0
 17 16  1  0
 18 17  1  0
 19 18  1  0
 20 19  1  0
 21 20  1  0
 22 21  1  0
 23 22  1  0
 24 23  1  0
 25 20  2  0
 25 24  1  0
 26 25  1  0
 27 26  2  0
 28 19  2  0
 28 27  1  0
 29 28  1  0
 30 29  2  0
 31 30  1  0
 32 31  2  0
 32 27  1  0
  3 33  1  0
  4 34  1  1
  5 35  1  0
  5 36  1  0
  5 37  1  0
  6 38  1  0
  6 39  1  0
  8 40  1  0
  9 41  1  0
 12 42  1  0
 13 43  1  0
 14 44  1  0
 15 45  1  0
 16 46  1  0
 16 47  1  0
 17 48  1  0
 17 49  1  0
 18 50  1  0
 21 51  1  0
 21 52  1  0
 22 53  1  0
 22 54  1  0
 23 55  1  0
 23 56  1  0
 24 57  1  0
 24 58  1  0
 29 59  1  0
 30 60  1  0
 31 61  1  0
 32 62  1  0
M  CHG  1   5   1
M  END
>  <score>  (2) 
-12.4

$$$$
=
     RDKit          3D

 62 66  0  0  0  0  0  0  0  0999 V2000
    0.4630   67.1320   68.0170 C   0  0  0  0  0  0  0  0  0  0  0  0
   -0.7560   67.2590   67.8900 O   0  0  0  0  0  0  0  0  0  0  0  0
    1.0730   66.6370   69.1370 N   0  0  0  0  0  0  0  0  0  0  0  0
    1.3870   67.5520   66.8700 C   0  0  1  0  0  0  0  0  0  0  0  0
    0.8530   66.9740   65.5800 N   0  0  0  0  0  4  0  0  0  0  0  0
    1.4570   69.0830   66.7730 C   0  0  0  0  0  0  0  0  0  0  0  0
    2.5140   69.6660   67.6570 C   0  0  0  0  0  0  0  0  0  0  0  0
    2.3350   70.1520   68.9380 C   0  0  0  0  0  0  0  0  0  0  0  0
    3.5440   70.6070   69.3980 N   0  0  0  0  0  0  0  0  0  0  0  0
    4.5040   70.4600   68.4240 C   0  0  0  0  0  0  0  0  0  0  0  0
    3.8970   69.8400   67.3320 C   0  0  0  0  0  0  0  0  0  0  0  0
    4.6910   69.5300   66.2090 C   0  0  0  0  0  0  0  0  0  0  0  0
    6.0500   69.8680   66.2120 C   0  0  0  0  0  0  0  0  0  0  0  0
    6.6210   70.5010   67.3130 C   0  0  0  0  0  0  0  0  0  0  0  0
    5.8590   70.8040   68.4440 C   0  0  0  0  0  0  0  0  0  0  0  0
    0.2960   66.0880   70.2410 C   0  0  0  0  0  0  0  0  0  0  0  0
    0.9790   64.9130   70.9700 C   0  0  0  0  0  0  0  0  0  0  0  0
    0.5360   63.5670   70.5450 N   0  0  0  0  0  0  0  0  0  0  0  0
    1.1820   62.4330   71.0910 C   0  0  0  0  0  0  0  0  0  0  0  0
    2.5110   62.0900   70.8150 C   0  0  0  0  0  0  0  0  0  0  0  0
    3.4800   62.9210   70.0170 C   0  0  0  0  0  0  0  0  0  0  0  0
    4.8810   62.9120   70.6410 C   0  0  0  0  0  0  0  0  0  0  0  0
    5.3820   61.5320   71.0780 C   0  0  0  0  0  0  0  0  0  0  0  0
    4.3600   60.4120   70.9120 C   0  0  0  0  0  0  0  0  0  0  0  0
    2.9810   60.8710   71.3100 C   0  0  0  0  0  0  0  0  0  0  0  0
    2.2560   60.0490   72.0990 N   0  0  0  0  0  0  0  0  0  0  0  0
    1.0410   60.4480   72.4860 C   0  0  0  0  0  0  0  0  0  0  0  0
    0.4510   61.6390   72.0210 C   0  0  0  0  0  0  0  0  0  0  0  0
   -0.8370   61.9900   72.4960 C   0  0  0  0  0  0  0  0  0  0  0  0
   -1.5210   61.1820   73.4040 C   0  0  0  0  0  0  0  0  0  0  0  0
   -0.9330   60.0050   73.8420 C   0  0  0  0  0  0  0  0  0  0  0  0
    0.3350   59.6500   73.3770 C   0  0  0  0  0  0  0  0  0  0  0  0
    2.1009   66.6526   69.2012 H   0  0  0  0  0  0  0  0  0  0  0  0
    2.4025   67.1728   67.0572 H   0  0  0  0  0  0  0  0  0  0  0  0
    0.1691   66.2337   65.7926 H   0  0  0  0  0  0  0  0  0  0  0  0
    0.3952   67.7178   65.0340 H   0  0  0  0  0  0  0  0  0  0  0  0
    1.6307   66.5764   65.0340 H   0  0  0  0  0  0  0  0  0  0  0  0
    1.6758   69.3607   65.7314 H   0  0  0  0  0  0  0  0  0  0  0  0
    0.4872   69.4833   67.1034 H   0  0  0  0  0  0  0  0  0  0  0  0
    1.3857   70.1707   69.4934 H   0  0  0  0  0  0  0  0  0  0  0  0
    3.7090   71.0010   70.3353 H   0  0  0  0  0  0  0  0  0  0  0  0
    4.2467   69.0268   65.3376 H   0  0  0  0  0  0  0  0  0  0  0  0
    6.6723   69.6312   65.3364 H   0  0  0  0  0  0  0  0  0  0  0  0
    7.6883   70.7665   67.2919 H   0  0  0  0  0  0  0  0  0  0  0  0
    6.3090   71.2957   69.3191 H   0  0  0  0  0  0  0  0  0  0  0  0
    0.1187   66.8912   70.9714 H   0  0  0  0  0  0  0  0  0  0  0  0
   -0.6351   65.6937   69.8078 H   0  0  0  0  0  0  0  0  0  0  0  0
    2.0623   64.9864   70.7939 H   0  0  0  0  0  0  0  0  0  0  0  0
    0.6996   65.0066   72.0298 H   0  0  0  0  0  0  0  0  0  0  0  0
   -0.2289   63.4575   69.8639 H   0  0  0  0  0  0  0  0  0  0  0  0
    3.5415   62.5154   68.9964 H   0  0  0  0  0  0  0  0  0  0  0  0
    3.1152   63.9587   70.0068 H   0  0  0  0  0  0  0  0  0  0  0  0
    5.5879   63.3136   69.9001 H   0  0  0  0  0  0  0  0  0  0  0  0
    4.8163   63.5210   71.5547 H   0  0  0  0  0  0  0  0  0  0  0  0
    6.2687   61.2812   70.4772 H   0  0  0  0  0  0  0  0  0  0  0  0
    5.6006   61.6022   72.1538 H   0  0  0  0  0  0  0  0  0  0  0  0
    4.3428   60.0948   69.8589 H   0  0  0  0  0  0  0  0  0  0  0  0
    4.6507   59.5750   71.5638 H   0  0  0  0  0  0  0  0  0  0  0  0
   -1.3072   62.9190   72.1412 H   0  0  0  0  0  0  0  0  0  0  0  0
   -2.5164   61.4753   73.7689 H   0  0  0  0  0  0  0  0  0  0  0  0
   -1.4631   59.3538   74.5526 H   0  0  0  0  0  0  0  0  0  0  0  0
    0.7881   58.7106   73.7267 H   0  0  0  0  0  0  0  0  0  0  0  0
  2  1  2  0
  3  1  1  0
  4  1  1  0
  5  4  1  0
  6  4  1  0
  7  6  1  0
  8  7  2  0
  9  8  1  0
 10  9  1  0
 11  7  1  0
 11 10  2  0
 12 11  1  0
 13 12  2  0
 14 13  1  0
 15 14  2  0
 15 10  1  0
 16  3  1  0
 17 16  1  0
 18 17  1  0
 19 18  1  0
 20 19  1  0
 21 20  1  0
 22 21  1  0
 23 22  1  0
 24 23  1  0
 25 20  2  0
 25 24  1  0
 26 25  1  0
 27 26  2  0
 28 19  2  0
 28 27  1  0
 29 28  1  0
 30 29  2  0
 31 30  1  0
 32 31  2  0
 32 27  1  0
  3 33  1  0
  4 34  1  1
  5 35  1  0
  5 36  1  0
  5 37  1  0
  6 38  1  0
  6 39  1  0
  8 40  1  0
  9 41  1  0
 12 42  1  0
 13 43  1  0
 14 44  1  0
 15 45  1  0
 16 46  1  0
 16 47  1  0
 17 48  1  0
 17 49  1  0
 18 50  1  0
 21 51  1  0
 21 52  1  0
 22 53  1  0
 22 54  1  0
 23 55  1  0
 23 56  1  0
 24 57  1  0
 24 58  1  0
 29 59  1  0
 30 60  1  0
 31 61  1  0
 32 62  1  0
M  CHG  1   5   1
M  END
>  <score>  (3) 
-12.351

$$$$
=
     RDKit          3D

 62 66  0  0  0  0  0  0  0  0999 V2000
    0.8970   67.4940   67.9370 C   0  0  0  0  0  0  0  0  0  0  0  0
    0.0540   68.3680   68.1460 O   0  0  0  0  0  0  0  0  0  0  0  0
    1.1800   66.4740   68.8050 N   0  0  0  0  0  0  0  0  0  0  0  0
    1.7070   67.5230   66.6370 C   0  0  1  0  0  0  0  0  0  0  0  0
    0.9190   66.8130   65.5600 N   0  0  0  0  0  4  0  0  0  0  0  0
    1.9870   68.9720   66.2160 C   0  0  0  0  0  0  0  0  0  0  0  0
    3.4510   69.2650   66.1070 C   0  0  0  0  0  0  0  0  0  0  0  0
    4.2580   69.0140   65.0140 C   0  0  0  0  0  0  0  0  0  0  0  0
    5.5330   69.4150   65.3200 N   0  0  0  0  0  0  0  0  0  0  0  0
    5.5800   69.8900   66.6100 C   0  0  0  0  0  0  0  0  0  0  0  0
    4.2830   69.8420   67.1190 C   0  0  0  0  0  0  0  0  0  0  0  0
    4.0550   70.3260   68.4230 C   0  0  0  0  0  0  0  0  0  0  0  0
    5.1300   70.8200   69.1720 C   0  0  0  0  0  0  0  0  0  0  0  0
    6.4160   70.8400   68.6390 C   0  0  0  0  0  0  0  0  0  0  0  0
    6.6650   70.3800   67.3440 C   0  0  0  0  0  0  0  0  0  0  0  0
    0.3910   66.2680   70.0130 C   0  0  0  0  0  0  0  0  0  0  0  0
    0.1620   64.7860   70.3710 C   0  0  0  0  0  0  0  0  0  0  0  0
    0.9010   64.3060   71.5590 N   0  0  0  0  0  0  0  0  0  0  0  0
    1.2200   62.9300   71.6550 C   0  0  0  0  0  0  0  0  0  0  0  0
    0.5700   62.0430   72.5200 C   0  0  0  0  0  0  0  0  0  0  0  0
   -0.6270   62.3720   73.3720 C   0  0  0  0  0  0  0  0  0  0  0  0
   -1.6440   61.2240   73.3870 C   0  0  0  0  0  0  0  0  0  0  0  0
   -1.0400   59.8300   73.5880 C   0  0  0  0  0  0  0  0  0  0  0  0
    0.4840   59.8100   73.6380 C   0  0  0  0  0  0  0  0  0  0  0  0
    1.0750   60.7440   72.6140 C   0  0  0  0  0  0  0  0  0  0  0  0
    2.0970   60.2770   71.8650 N   0  0  0  0  0  0  0  0  0  0  0  0
    2.6180   61.0790   70.9310 C   0  0  0  0  0  0  0  0  0  0  0  0
    2.2140   62.4190   70.7720 C   0  0  0  0  0  0  0  0  0  0  0  0
    2.8120   63.1920   69.7470 C   0  0  0  0  0  0  0  0  0  0  0  0
    3.7850   62.6540   68.9050 C   0  0  0  0  0  0  0  0  0  0  0  0
    4.1830   61.3370   69.0830 C   0  0  0  0  0  0  0  0  0  0  0  0
    3.6010   60.5690   70.0930 C   0  0  0  0  0  0  0  0  0  0  0  0
    1.9656   65.8400   68.6005 H   0  0  0  0  0  0  0  0  0  0  0  0
    2.6714   67.0166   66.7906 H   0  0  0  0  0  0  0  0  0  0  0  0
    0.2260   66.1886   65.9968 H   0  0  0  0  0  0  0  0  0  0  0  0
    0.4341   67.5081   64.9747 H   0  0  0  0  0  0  0  0  0  0  0  0
    1.5600   66.2585   64.9747 H   0  0  0  0  0  0  0  0  0  0  0  0
    1.5175   69.1520   65.2377 H   0  0  0  0  0  0  0  0  0  0  0  0
    1.5712   69.6316   66.9919 H   0  0  0  0  0  0  0  0  0  0  0  0
    3.9334   68.5689   64.0619 H   0  0  0  0  0  0  0  0  0  0  0  0
    6.3373   69.3675   64.6783 H   0  0  0  0  0  0  0  0  0  0  0  0
    3.0408   70.3157   68.8488 H   0  0  0  0  0  0  0  0  0  0  0  0
    4.9568   71.1958   70.1912 H   0  0  0  0  0  0  0  0  0  0  0  0
    7.2485   71.2239   69.2470 H   0  0  0  0  0  0  0  0  0  0  0  0
    7.6783   70.4023   66.9166 H   0  0  0  0  0  0  0  0  0  0  0  0
    0.9133   66.7494   70.8529 H   0  0  0  0  0  0  0  0  0  0  0  0
   -0.6004   66.7048   69.8223 H   0  0  0  0  0  0  0  0  0  0  0  0
   -0.9126   64.6425   70.5572 H   0  0  0  0  0  0  0  0  0  0  0  0
    0.5406   64.2029   69.5185 H   0  0  0  0  0  0  0  0  0  0  0  0
    1.1787   64.9614   72.3035 H   0  0  0  0  0  0  0  0  0  0  0  0
   -0.2902   62.5636   74.4015 H   0  0  0  0  0  0  0  0  0  0  0  0
   -1.1177   63.2599   72.9466 H   0  0  0  0  0  0  0  0  0  0  0  0
   -2.3562   61.4090   74.2046 H   0  0  0  0  0  0  0  0  0  0  0  0
   -2.1150   61.2159   72.3930 H   0  0  0  0  0  0  0  0  0  0  0  0
   -1.4216   59.4222   74.5357 H   0  0  0  0  0  0  0  0  0  0  0  0
   -1.3354   59.2289   72.7154 H   0  0  0  0  0  0  0  0  0  0  0  0
    0.8142   60.1209   74.6401 H   0  0  0  0  0  0  0  0  0  0  0  0
    0.8264   58.7884   73.4164 H   0  0  0  0  0  0  0  0  0  0  0  0
    2.5025   64.2389   69.6121 H   0  0  0  0  0  0  0  0  0  0  0  0
    4.2319   63.2672   68.1086 H   0  0  0  0  0  0  0  0  0  0  0  0
    4.9537   60.8999   68.4312 H   0  0  0  0  0  0  0  0  0  0  0  0
    3.9309   59.5285   70.2292 H   0  0  0  0  0  0  0  0  0  0  0  0
  2  1  2  0
  3  1  1  0
  4  1  1  0
  5  4  1  0
  6  4  1  0
  7  6  1  0
  8  7  2  0
  9  8  1  0
 10  9  1  0
 11  7  1  0
 11 10  2  0
 12 11  1  0
 13 12  2  0
 14 13  1  0
 15 14  2  0
 15 10  1  0
 16  3  1  0
 17 16  1  0
 18 17  1  0
 19 18  1  0
 20 19  1  0
 21 20  1  0
 22 21  1  0
 23 22  1  0
 24 23  1  0
 25 20  2  0
 25 24  1  0
 26 25  1  0
 27 26  2  0
 28 19  2  0
 28 27  1  0
 29 28  1  0
 30 29  2  0
 31 30  1  0
 32 31  2  0
 32 27  1  0
  3 33  1  0
  4 34  1  1
  5 35  1  0
  5 36  1  0
  5 37  1  0
  6 38  1  0
  6 39  1  0
  8 40  1  0
  9 41  1  0
 12 42  1  0
 13 43  1  0
 14 44  1  0
 15 45  1  0
 16 46  1  0
 16 47  1  0
 17 48  1  0
 17 49  1  0
 18 50  1  0
 21 51  1  0
 21 52  1  0
 22 53  1  0
 22 54  1  0
 23 55  1  0
 23 56  1  0
 24 57  1  0
 24 58  1  0
 29 59  1  0
 30 60  1  0
 31 61  1  0
 32 62  1  0
M  CHG  1   5   1
M  END
>  <score>  (4) 
-11.983

$$$$
=
     RDKit          3D

 62 66  0  0  0  0  0  0  0  0999 V2000
    1.0880   64.7740   70.5530 C   0  0  0  0  0  0  0  0  0  0  0  0
    0.3420   65.0780   71.4840 O   0  0  0  0  0  0  0  0  0  0  0  0
    1.4760   65.6350   69.5630 N   0  0  0  0  0  0  0  0  0  0  0  0
    1.6310   63.3440   70.4590 C   0  0  1  0  0  0  0  0  0  0  0  0
    2.5600   63.2570   69.2700 N   0  0  0  0  0  4  0  0  0  0  0  0
    2.3830   62.9740   71.7440 C   0  0  0  0  0  0  0  0  0  0  0  0
    1.9590   61.6490   72.2960 C   0  0  0  0  0  0  0  0  0  0  0  0
    2.7440   60.5180   72.4070 C   0  0  0  0  0  0  0  0  0  0  0  0
    1.9820   59.5160   72.9490 N   0  0  0  0  0  0  0  0  0  0  0  0
    0.6980   59.9630   73.1590 C   0  0  0  0  0  0  0  0  0  0  0  0
    0.6600   61.3070   72.7920 C   0  0  0  0  0  0  0  0  0  0  0  0
   -0.5460   62.0170   72.9620 C   0  0  0  0  0  0  0  0  0  0  0  0
   -1.6690   61.3530   73.4720 C   0  0  0  0  0  0  0  0  0  0  0  0
   -1.6020   60.0050   73.8140 C   0  0  0  0  0  0  0  0  0  0  0  0
   -0.4140   59.2850   73.6690 C   0  0  0  0  0  0  0  0  0  0  0  0
    1.1280   67.0500   69.6130 C   0  0  0  0  0  0  0  0  0  0  0  0
    0.5760   67.6120   68.2880 C   0  0  0  0  0  0  0  0  0  0  0  0
    1.0470   68.9690   67.9360 N   0  0  0  0  0  0  0  0  0  0  0  0
    2.1340   69.1040   67.0400 C   0  0  0  0  0  0  0  0  0  0  0  0
    2.0670   68.7660   65.6830 C   0  0  0  0  0  0  0  0  0  0  0  0
    0.8240   68.3360   64.9500 C   0  0  0  0  0  0  0  0  0  0  0  0
    0.7490   68.9580   63.5510 C   0  0  0  0  0  0  0  0  0  0  0  0
    2.0540   68.9020   62.7500 C   0  0  0  0  0  0  0  0  0  0  0  0
    3.2380   68.3270   63.5200 C   0  0  0  0  0  0  0  0  0  0  0  0
    3.2520   68.8180   64.9450 C   0  0  0  0  0  0  0  0  0  0  0  0
    4.4300   69.2500   65.4410 N   0  0  0  0  0  0  0  0  0  0  0  0
    4.4600   69.7170   66.6930 C   0  0  0  0  0  0  0  0  0  0  0  0
    3.3370   69.6780   67.5430 C   0  0  0  0  0  0  0  0  0  0  0  0
    3.4570   70.2070   68.8510 C   0  0  0  0  0  0  0  0  0  0  0  0
    4.6540   70.7580   69.3060 C   0  0  0  0  0  0  0  0  0  0  0  0
    5.7560   70.7760   68.4630 C   0  0  0  0  0  0  0  0  0  0  0  0
    5.6480   70.2530   67.1720 C   0  0  0  0  0  0  0  0  0  0  0  0
    2.0240   65.2770   68.7678 H   0  0  0  0  0  0  0  0  0  0  0  0
    0.7963   62.6385   70.3342 H   0  0  0  0  0  0  0  0  0  0  0  0
    3.5317   63.1660   69.5994 H   0  0  0  0  0  0  0  0  0  0  0  0
    2.3123   62.4355   68.7001 H   0  0  0  0  0  0  0  0  0  0  0  0
    2.4691   64.1102   68.7001 H   0  0  0  0  0  0  0  0  0  0  0  0
    3.4600   62.9358   71.5237 H   0  0  0  0  0  0  0  0  0  0  0  0
    2.1510   63.7398   72.4988 H   0  0  0  0  0  0  0  0  0  0  0  0
    3.8002   60.4356   72.1110 H   0  0  0  0  0  0  0  0  0  0  0  0
    2.3207   58.5680   73.1670 H   0  0  0  0  0  0  0  0  0  0  0  0
   -0.6046   63.0829   72.6965 H   0  0  0  0  0  0  0  0  0  0  0  0
   -2.6131   61.9020   73.6036 H   0  0  0  0  0  0  0  0  0  0  0  0
   -2.4978   59.4997   74.2041 H   0  0  0  0  0  0  0  0  0  0  0  0
   -0.3550   58.2221   73.9461 H   0  0  0  0  0  0  0  0  0  0  0  0
    0.3641   67.1901   70.3920 H   0  0  0  0  0  0  0  0  0  0  0  0
    2.0584   67.5971   69.8252 H   0  0  0  0  0  0  0  0  0  0  0  0
    0.8718   66.9283   67.4786 H   0  0  0  0  0  0  0  0  0  0  0  0
   -0.5132   67.6910   68.4196 H   0  0  0  0  0  0  0  0  0  0  0  0
    0.5916   69.8017   68.3362 H   0  0  0  0  0  0  0  0  0  0  0  0
    0.8277   67.2402   64.8535 H   0  0  0  0  0  0  0  0  0  0  0  0
   -0.0494   68.6773   65.5250 H   0  0  0  0  0  0  0  0  0  0  0  0
   -0.0254   68.4241   62.9806 H   0  0  0  0  0  0  0  0  0  0  0  0
    0.5229   70.0243   63.6989 H   0  0  0  0  0  0  0  0  0  0  0  0
    1.8856   68.2777   61.8601 H   0  0  0  0  0  0  0  0  0  0  0  0
    2.3152   69.9408   62.4998 H   0  0  0  0  0  0  0  0  0  0  0  0
    3.1673   67.2293   63.5194 H   0  0  0  0  0  0  0  0  0  0  0  0
    4.1657   68.6563   63.0291 H   0  0  0  0  0  0  0  0  0  0  0  0
    2.5864   70.1826   69.5230 H   0  0  0  0  0  0  0  0  0  0  0  0
    4.7241   71.1739   70.3219 H   0  0  0  0  0  0  0  0  0  0  0  0
    6.7100   71.2000   68.8095 H   0  0  0  0  0  0  0  0  0  0  0  0
    6.5304   70.2662   66.5154 H   0  0  0  0  0  0  0  0  0  0  0  0
  2  1  2  0
  3  1  1  0
  4  1  1  0
  5  4  1  0
  6  4  1  0
  7  6  1  0
  8  7  2  0
  9  8  1  0
 10  9  1  0
 11  7  1  0
 11 10  2  0
 12 11  1  0
 13 12  2  0
 14 13  1  0
 15 14  2  0
 15 10  1  0
 16  3  1  0
 17 16  1  0
 18 17  1  0
 19 18  1  0
 20 19  1  0
 21 20  1  0
 22 21  1  0
 23 22  1  0
 24 23  1  0
 25 20  2  0
 25 24  1  0
 26 25  1  0
 27 26  2  0
 28 19  2  0
 28 27  1  0
 29 28  1  0
 30 29  2  0
 31 30  1  0
 32 31  2  0
 32 27  1  0
  3 33  1  0
  4 34  1  6
  5 35  1  0
  5 36  1  0
  5 37  1  0
  6 38  1  0
  6 39  1  0
  8 40  1  0
  9 41  1  0
 12 42  1  0
 13 43  1  0
 14 44  1  0
 15 45  1  0
 16 46  1  0
 16 47  1  0
 17 48  1  0
 17 49  1  0
 18 50  1  0
 21 51  1  0
 21 52  1  0
 22 53  1  0
 22 54  1  0
 23 55  1  0
 23 56  1  0
 24 57  1  0
 24 58  1  0
 29 59  1  0
 30 60  1  0
 31 61  1  0
 32 62  1  0
M  CHG  1   5   1
M  END
>  <score>  (5) 
-11.756

$$$$
=
     RDKit          3D

 62 66  0  0  0  0  0  0  0  0999 V2000
   -0.0420   67.3230   68.2460 C   0  0  0  0  0  0  0  0  0  0  0  0
    0.8160   68.1990   68.3660 O   0  0  0  0  0  0  0  0  0  0  0  0
   -0.1790   66.2580   69.0940 N   0  0  0  0  0  0  0  0  0  0  0  0
   -1.0320   67.3930   67.0790 C   0  0  1  0  0  0  0  0  0  0  0  0
   -2.4230   67.1310   67.6090 N   0  0  0  0  0  4  0  0  0  0  0  0
   -0.9730   68.7740   66.4120 C   0  0  0  0  0  0  0  0  0  0  0  0
   -0.4010   68.7200   65.0310 C   0  0  0  0  0  0  0  0  0  0  0  0
   -1.1130   68.6010   63.8530 C   0  0  0  0  0  0  0  0  0  0  0  0
   -0.2210   68.5760   62.8120 N   0  0  0  0  0  0  0  0  0  0  0  0
    1.0660   68.6400   63.2930 C   0  0  0  0  0  0  0  0  0  0  0  0
    0.9860   68.7660   64.6790 C   0  0  0  0  0  0  0  0  0  0  0  0
    2.1830   68.9020   65.4110 C   0  0  0  0  0  0  0  0  0  0  0  0
    3.4090   68.8860   64.7360 C   0  0  0  0  0  0  0  0  0  0  0  0
    3.4550   68.7420   63.3510 C   0  0  0  0  0  0  0  0  0  0  0  0
    2.2820   68.6220   62.6020 C   0  0  0  0  0  0  0  0  0  0  0  0
    0.6200   66.1510   70.3090 C   0  0  0  0  0  0  0  0  0  0  0  0
    0.4400   64.8210   71.0670 C   0  0  0  0  0  0  0  0  0  0  0  0
    0.7100   63.6030   70.2720 N   0  0  0  0  0  0  0  0  0  0  0  0
    1.3140   62.4920   70.9080 C   0  0  0  0  0  0  0  0  0  0  0  0
    2.6410   62.1020   70.6920 C   0  0  0  0  0  0  0  0  0  0  0  0
    3.6500   62.8560   69.8670 C   0  0  0  0  0  0  0  0  0  0  0  0
    5.0340   62.8560   70.5280 C   0  0  0  0  0  0  0  0  0  0  0  0
    5.4900   61.4960   71.0690 C   0  0  0  0  0  0  0  0  0  0  0  0
    4.4450   60.3920   70.9490 C   0  0  0  0  0  0  0  0  0  0  0  0
    3.0680   60.9080   71.2780 C   0  0  0  0  0  0  0  0  0  0  0  0
    2.3040   60.1570   72.1000 N   0  0  0  0  0  0  0  0  0  0  0  0
    1.0890   60.6090   72.4270 C   0  0  0  0  0  0  0  0  0  0  0  0
    0.5400   61.7790   71.8690 C   0  0  0  0  0  0  0  0  0  0  0  0
   -0.7500   62.1900   72.2840 C   0  0  0  0  0  0  0  0  0  0  0  0
   -1.4760   61.4610   73.2250 C   0  0  0  0  0  0  0  0  0  0  0  0
   -0.9290   60.3030   73.7560 C   0  0  0  0  0  0  0  0  0  0  0  0
    0.3410   59.8890   73.3500 C   0  0  0  0  0  0  0  0  0  0  0  0
   -0.8594   65.5179   68.8699 H   0  0  0  0  0  0  0  0  0  0  0  0
   -0.7700   66.6360   66.3252 H   0  0  0  0  0  0  0  0  0  0  0  0
   -2.4043   67.1345   68.6388 H   0  0  0  0  0  0  0  0  0  0  0  0
   -3.0620   67.8664   67.2747 H   0  0  0  0  0  0  0  0  0  0  0  0
   -2.7506   66.2135   67.2747 H   0  0  0  0  0  0  0  0  0  0  0  0
   -1.9929   69.1822   66.3555 H   0  0  0  0  0  0  0  0  0  0  0  0
   -0.3151   69.4112   67.0212 H   0  0  0  0  0  0  0  0  0  0  0  0
   -2.2076   68.5373   63.7653 H   0  0  0  0  0  0  0  0  0  0  0  0
   -0.4771   68.5178   61.8160 H   0  0  0  0  0  0  0  0  0  0  0  0
    2.1537   69.0198   66.5043 H   0  0  0  0  0  0  0  0  0  0  0  0
    4.3452   68.9881   65.3044 H   0  0  0  0  0  0  0  0  0  0  0  0
    4.4289   68.7225   62.8400 H   0  0  0  0  0  0  0  0  0  0  0  0
    2.3135   68.5171   61.5075 H   0  0  0  0  0  0  0  0  0  0  0  0
    1.6805   66.2512   70.0347 H   0  0  0  0  0  0  0  0  0  0  0  0
    0.2779   66.9491   70.9843 H   0  0  0  0  0  0  0  0  0  0  0  0
    1.1245   64.8244   71.9280 H   0  0  0  0  0  0  0  0  0  0  0  0
   -0.6216   64.7719   71.3508 H   0  0  0  0  0  0  0  0  0  0  0  0
    0.4627   63.5641   69.2729 H   0  0  0  0  0  0  0  0  0  0  0  0
    3.7272   62.3823   68.8772 H   0  0  0  0  0  0  0  0  0  0  0  0
    3.3113   63.8988   69.7784 H   0  0  0  0  0  0  0  0  0  0  0  0
    5.7693   63.1910   69.7816 H   0  0  0  0  0  0  0  0  0  0  0  0
    4.9610   63.5256   71.3976 H   0  0  0  0  0  0  0  0  0  0  0  0
    6.3853   61.1854   70.5105 H   0  0  0  0  0  0  0  0  0  0  0  0
    5.6831   61.6324   72.1433 H   0  0  0  0  0  0  0  0  0  0  0  0
    4.4471   60.0062   69.9189 H   0  0  0  0  0  0  0  0  0  0  0  0
    4.6978   59.5937   71.6623 H   0  0  0  0  0  0  0  0  0  0  0  0
   -1.1883   63.1032   71.8551 H   0  0  0  0  0  0  0  0  0  0  0  0
   -2.4726   61.8012   73.5429 H   0  0  0  0  0  0  0  0  0  0  0  0
   -1.4929   59.7132   74.4937 H   0  0  0  0  0  0  0  0  0  0  0  0
    0.7619   58.9652   73.7736 H   0  0  0  0  0  0  0  0  0  0  0  0
  2  1  2  0
  3  1  1  0
  4  1  1  0
  5  4  1  0
  6  4  1  0
  7  6  1  0
  8  7  2  0
  9  8  1  0
 10  9  1  0
 11  7  1  0
 11 10  2  0
 12 11  1  0
 13 12  2  0
 14 13  1  0
 15 14  2  0
 15 10  1  0
 16  3  1  0
 17 16  1  0
 18 17  1  0
 19 18  1  0
 20 19  1  0
 21 20  1  0
 22 21  1  0
 23 22  1  0
 24 23  1  0
 25 20  2  0
 25 24  1  0
 26 25  1  0
 27 26  2  0
 28 19  2  0
 28 27  1  0
 29 28  1  0
 30 29  2  0
 31 30  1  0
 32 31  2  0
 32 27  1  0
  3 33  1  0
  4 34  1  6
  5 35  1  0
  5 36  1  0
  5 37  1  0
  6 38  1  0
  6 39  1  0
  8 40  1  0
  9 41  1  0
 12 42  1  0
 13 43  1  0
 14 44  1  0
 15 45  1  0
 16 46  1  0
 16 47  1  0
 17 48  1  0
 17 49  1  0
 18 50  1  0
 21 51  1  0
 21 52  1  0
 22 53  1  0
 22 54  1  0
 23 55  1  0
 23 56  1  0
 24 57  1  0
 24 58  1  0
 29 59  1  0
 30 60  1  0
 31 61  1  0
 32 62  1  0
M  CHG  1   5   1
M  END
>  <score>  (6) 
-11.241

$$$$
=
     RDKit          3D

 62 66  0  0  0  0  0  0  0  0999 V2000
    0.1090   66.8180   68.4430 C   0  0  0  0  0  0  0  0  0  0  0  0
   -1.0680   66.4580   68.5000 O   0  0  0  0  0  0  0  0  0  0  0  0
    1.0480   66.5360   69.3980 N   0  0  0  0  0  0  0  0  0  0  0  0
    0.5870   67.6440   67.2450 C   0  0  1  0  0  0  0  0  0  0  0  0
   -0.4640   67.5780   66.1600 N   0  0  0  0  0  4  0  0  0  0  0  0
    0.8250   69.1010   67.6620 C   0  0  0  0  0  0  0  0  0  0  0  0
    2.2750   69.4710   67.6550 C   0  0  0  0  0  0  0  0  0  0  0  0
    2.9980   69.9700   68.7210 C   0  0  0  0  0  0  0  0  0  0  0  0
    4.2850   70.1890   68.3030 N   0  0  0  0  0  0  0  0  0  0  0  0
    4.4070   69.8760   66.9690 C   0  0  0  0  0  0  0  0  0  0  0  0
    3.1720   69.3890   66.5420 C   0  0  0  0  0  0  0  0  0  0  0  0
    3.0480   68.9480   65.2090 C   0  0  0  0  0  0  0  0  0  0  0  0
    4.1520   69.0280   64.3520 C   0  0  0  0  0  0  0  0  0  0  0  0
    5.3670   69.5350   64.8060 C   0  0  0  0  0  0  0  0  0  0  0  0
    5.5190   69.9630   66.1260 C   0  0  0  0  0  0  0  0  0  0  0  0
    0.7450   65.6540   70.5180 C   0  0  0  0  0  0  0  0  0  0  0  0
    1.2550   64.2100   70.3390 C   0  0  0  0  0  0  0  0  0  0  0  0
    2.3990   63.8360   71.1990 N   0  0  0  0  0  0  0  0  0  0  0  0
    2.3120   62.6560   71.9760 C   0  0  0  0  0  0  0  0  0  0  0  0
    1.7910   62.6200   73.2750 C   0  0  0  0  0  0  0  0  0  0  0  0
    1.1390   63.7740   73.9870 C   0  0  0  0  0  0  0  0  0  0  0  0
   -0.0920   63.3250   74.7840 C   0  0  0  0  0  0  0  0  0  0  0  0
    0.1070   62.0510   75.6130 C   0  0  0  0  0  0  0  0  0  0  0  0
    1.4670   61.3870   75.4230 C   0  0  0  0  0  0  0  0  0  0  0  0
    1.8920   61.4170   73.9780 C   0  0  0  0  0  0  0  0  0  0  0  0
    2.3860   60.2760   73.4530 N   0  0  0  0  0  0  0  0  0  0  0  0
    2.7430   60.2720   72.1650 C   0  0  0  0  0  0  0  0  0  0  0  0
    2.7200   61.4340   71.3690 C   0  0  0  0  0  0  0  0  0  0  0  0
    3.1030   61.3330   70.0080 C   0  0  0  0  0  0  0  0  0  0  0  0
    3.4990   60.1170   69.4540 C   0  0  0  0  0  0  0  0  0  0  0  0
    3.5310   58.9840   70.2530 C   0  0  0  0  0  0  0  0  0  0  0  0
    3.1570   59.0740   71.5960 C   0  0  0  0  0  0  0  0  0  0  0  0
    1.9861   66.9548   69.3238 H   0  0  0  0  0  0  0  0  0  0  0  0
    1.5368   67.2351   66.8700 H   0  0  0  0  0  0  0  0  0  0  0  0
   -1.3981   67.5193   66.5900 H   0  0  0  0  0  0  0  0  0  0  0  0
   -0.4076   68.4242   65.5755 H   0  0  0  0  0  0  0  0  0  0  0  0
   -0.3022   66.7455   65.5755 H   0  0  0  0  0  0  0  0  0  0  0  0
    0.2897   69.7598   66.9624 H   0  0  0  0  0  0  0  0  0  0  0  0
    0.4558   69.2179   68.6916 H   0  0  0  0  0  0  0  0  0  0  0  0
    2.6079   70.1592   69.7319 H   0  0  0  0  0  0  0  0  0  0  0  0
    5.0487   70.5369   68.9002 H   0  0  0  0  0  0  0  0  0  0  0  0
    2.0916   68.5443   64.8451 H   0  0  0  0  0  0  0  0  0  0  0  0
    4.0589   68.6872   63.3103 H   0  0  0  0  0  0  0  0  0  0  0  0
    6.2197   69.5992   64.1141 H   0  0  0  0  0  0  0  0  0  0  0  0
    6.4801   70.3550   66.4902 H   0  0  0  0  0  0  0  0  0  0  0  0
    1.2078   66.0739   71.4232 H   0  0  0  0  0  0  0  0  0  0  0  0
   -0.3512   65.5964   70.5884 H   0  0  0  0  0  0  0  0  0  0  0  0
    0.4235   63.5252   70.5616 H   0  0  0  0  0  0  0  0  0  0  0  0
    1.6160   64.1396   69.3023 H   0  0  0  0  0  0  0  0  0  0  0  0
    3.2441   64.4239   71.2319 H   0  0  0  0  0  0  0  0  0  0  0  0
    1.8669   64.2238   74.6783 H   0  0  0  0  0  0  0  0  0  0  0  0
    0.8115   64.5030   73.2311 H   0  0  0  0  0  0  0  0  0  0  0  0
   -0.3712   64.1388   75.4694 H   0  0  0  0  0  0  0  0  0  0  0  0
   -0.8719   63.0934   74.0437 H   0  0  0  0  0  0  0  0  0  0  0  0
   -0.0047   62.3104   76.6761 H   0  0  0  0  0  0  0  0  0  0  0  0
   -0.6480   61.3289   75.2687 H   0  0  0  0  0  0  0  0  0  0  0  0
    2.2145   61.9212   76.0278 H   0  0  0  0  0  0  0  0  0  0  0  0
    1.3888   60.3368   75.7409 H   0  0  0  0  0  0  0  0  0  0  0  0
    3.0873   62.2331   69.3759 H   0  0  0  0  0  0  0  0  0  0  0  0
    3.7834   60.0565   68.3931 H   0  0  0  0  0  0  0  0  0  0  0  0
    3.8493   58.0192   69.8314 H   0  0  0  0  0  0  0  0  0  0  0  0
    3.1913   58.1697   72.2214 H   0  0  0  0  0  0  0  0  0  0  0  0
  2  1  2  0
  3  1  1  0
  4  1  1  0
  5  4  1  0
  6  4  1  0
  7  6  1  0
  8  7  2  0
  9  8  1  0
 10  9  1  0
 11  7  1  0
 11 10  2  0
 12 11  1  0
 13 12  2  0
 14 13  1  0
 15 14  2  0
 15 10  1  0
 16  3  1  0
 17 16  1  0
 18 17  1  0
 19 18  1  0
 20 19  1  0
 21 20  1  0
 22 21  1  0
 23 22  1  0
 24 23  1  0
 25 20  2  0
 25 24  1  0
 26 25  1  0
 27 26  2  0
 28 19  2  0
 28 27  1  0
 29 28  1  0
 30 29  2  0
 31 30  1  0
 32 31  2  0
 32 27  1  0
  3 33  1  0
  4 34  1  6
  5 35  1  0
  5 36  1  0
  5 37  1  0
  6 38  1  0
  6 39  1  0
  8 40  1  0
  9 41  1  0
 12 42  1  0
 13 43  1  0
 14 44  1  0
 15 45  1  0
 16 46  1  0
 16 47  1  0
 17 48  1  0
 17 49  1  0
 18 50  1  0
 21 51  1  0
 21 52  1  0
 22 53  1  0
 22 54  1  0
 23 55  1  0
 23 56  1  0
 24 57  1  0
 24 58  1  0
 29 59  1  0
 30 60  1  0
 31 61  1  0
 32 62  1  0
M  CHG  1   5   1
M  END
>  <score>  (7) 
-10.972

$$$$
=
     RDKit          3D

 62 66  0  0  0  0  0  0  0  0999 V2000
    0.4730   67.4450   67.0620 C   0  0  0  0  0  0  0  0  0  0  0  0
   -0.5620   68.0280   66.7360 O   0  0  0  0  0  0  0  0  0  0  0  0
    0.6180   66.7150   68.2100 N   0  0  0  0  0  0  0  0  0  0  0  0
    1.7020   67.5250   66.1500 C   0  0  1  0  0  0  0  0  0  0  0  0
    1.3530   66.9150   64.8120 N   0  0  0  0  0  4  0  0  0  0  0  0
    2.1370   68.9850   65.9670 C   0  0  0  0  0  0  0  0  0  0  0  0
    2.8000   69.5430   67.1870 C   0  0  0  0  0  0  0  0  0  0  0  0
    2.1830   69.8690   68.3790 C   0  0  0  0  0  0  0  0  0  0  0  0
    3.1340   70.3580   69.2370 N   0  0  0  0  0  0  0  0  0  0  0  0
    4.3590   70.3920   68.6110 C   0  0  0  0  0  0  0  0  0  0  0  0
    4.1890   69.8540   67.3360 C   0  0  0  0  0  0  0  0  0  0  0  0
    5.3200   69.7310   66.5030 C   0  0  0  0  0  0  0  0  0  0  0  0
    6.5680   70.1660   66.9670 C   0  0  0  0  0  0  0  0  0  0  0  0
    6.7000   70.7130   68.2410 C   0  0  0  0  0  0  0  0  0  0  0  0
    5.5970   70.8310   69.0900 C   0  0  0  0  0  0  0  0  0  0  0  0
   -0.5150   66.4610   69.0920 C   0  0  0  0  0  0  0  0  0  0  0  0
   -0.2250   65.4460   70.2160 C   0  0  0  0  0  0  0  0  0  0  0  0
    1.1870   65.0170   70.3260 N   0  0  0  0  0  0  0  0  0  0  0  0
    1.4810   63.8010   70.9860 C   0  0  0  0  0  0  0  0  0  0  0  0
    2.2440   62.7740   70.4170 C   0  0  0  0  0  0  0  0  0  0  0  0
    2.9630   62.8500   69.0960 C   0  0  0  0  0  0  0  0  0  0  0  0
    4.3450   62.1890   69.1660 C   0  0  0  0  0  0  0  0  0  0  0  0
    4.3740   60.8280   69.8700 C   0  0  0  0  0  0  0  0  0  0  0  0
    3.0390   60.4060   70.4730 C   0  0  0  0  0  0  0  0  0  0  0  0
    2.3420   61.5730   71.1240 C   0  0  0  0  0  0  0  0  0  0  0  0
    1.8130   61.3750   72.3500 N   0  0  0  0  0  0  0  0  0  0  0  0
    1.2150   62.4040   72.9570 C   0  0  0  0  0  0  0  0  0  0  0  0
    1.0250   63.6500   72.3280 C   0  0  0  0  0  0  0  0  0  0  0  0
    0.3920   64.6890   73.0530 C   0  0  0  0  0  0  0  0  0  0  0  0
   -0.0430   64.4980   74.3640 C   0  0  0  0  0  0  0  0  0  0  0  0
    0.1380   63.2620   74.9660 C   0  0  0  0  0  0  0  0  0  0  0  0
    0.7580   62.2320   74.2580 C   0  0  0  0  0  0  0  0  0  0  0  0
    1.5445   66.3379   68.4557 H   0  0  0  0  0  0  0  0  0  0  0  0
    2.5368   66.9728   66.6062 H   0  0  0  0  0  0  0  0  0  0  0  0
    0.8468   66.0302   64.9596 H   0  0  0  0  0  0  0  0  0  0  0  0
    0.7572   67.5672   64.2823 H   0  0  0  0  0  0  0  0  0  0  0  0
    2.2171   66.7319   64.2823 H   0  0  0  0  0  0  0  0  0  0  0  0
    2.8433   69.0397   65.1255 H   0  0  0  0  0  0  0  0  0  0  0  0
    1.2328   69.5815   65.7758 H   0  0  0  0  0  0  0  0  0  0  0  0
    1.1118   69.7557   68.6018 H   0  0  0  0  0  0  0  0  0  0  0  0
    2.9576   70.6560   70.2070 H   0  0  0  0  0  0  0  0  0  0  0  0
    5.2230   69.2970   65.4969 H   0  0  0  0  0  0  0  0  0  0  0  0
    7.4522   70.0747   66.3190 H   0  0  0  0  0  0  0  0  0  0  0  0
    7.6870   71.0571   68.5836 H   0  0  0  0  0  0  0  0  0  0  0  0
    5.6989   71.2545   70.1001 H   0  0  0  0  0  0  0  0  0  0  0  0
   -0.8120   67.4134   69.5553 H   0  0  0  0  0  0  0  0  0  0  0  0
   -1.3095   66.0246   68.4688 H   0  0  0  0  0  0  0  0  0  0  0  0
   -0.5174   65.9040   71.1724 H   0  0  0  0  0  0  0  0  0  0  0  0
   -0.8012   64.5422   69.9685 H   0  0  0  0  0  0  0  0  0  0  0  0
    1.9424   65.5937   69.9289 H   0  0  0  0  0  0  0  0  0  0  0  0
    2.3605   62.3373   68.3317 H   0  0  0  0  0  0  0  0  0  0  0  0
    3.1018   63.9109   68.8407 H   0  0  0  0  0  0  0  0  0  0  0  0
    4.7097   62.0497   68.1376 H   0  0  0  0  0  0  0  0  0  0  0  0
    4.9781   62.8600   69.7651 H   0  0  0  0  0  0  0  0  0  0  0  0
    4.6767   60.0667   69.1360 H   0  0  0  0  0  0  0  0  0  0  0  0
    5.0826   60.9205   70.7063 H   0  0  0  0  0  0  0  0  0  0  0  0
    2.3965   60.0034   69.6760 H   0  0  0  0  0  0  0  0  0  0  0  0
    3.2296   59.6416   71.2407 H   0  0  0  0  0  0  0  0  0  0  0  0
    0.2404   65.6666   72.5721 H   0  0  0  0  0  0  0  0  0  0  0  0
   -0.5247   65.3193   74.9149 H   0  0  0  0  0  0  0  0  0  0  0  0
   -0.2058   63.0943   75.9974 H   0  0  0  0  0  0  0  0  0  0  0  0
    0.8890   61.2541   74.7444 H   0  0  0  0  0  0  0  0  0  0  0  0
  2  1  2  0
  3  1  1  0
  4  1  1  0
  5  4  1  0
  6  4  1  0
  7  6  1  0
  8  7  2  0
  9  8  1  0
 10  9  1  0
 11  7  1  0
 11 10  2  0
 12 11  1  0
 13 12  2  0
 14 13  1  0
 15 14  2  0
 15 10  1  0
 16  3  1  0
 17 16  1  0
 18 17  1  0
 19 18  1  0
 20 19  1  0
 21 20  1  0
 22 21  1  0
 23 22  1  0
 24 23  1  0
 25 20  2  0
 25 24  1  0
 26 25  1  0
 27 26  2  0
 28 19  2  0
 28 27  1  0
 29 28  1  0
 30 29  2  0
 31 30  1  0
 32 31  2  0
 32 27  1  0
  3 33  1  0
  4 34  1  1
  5 35  1  0
  5 36  1  0
  5 37  1  0
  6 38  1  0
  6 39  1  0
  8 40  1  0
  9 41  1  0
 12 42  1  0
 13 43  1  0
 14 44  1  0
 15 45  1  0
 16 46  1  0
 16 47  1  0
 17 48  1  0
 17 49  1  0
 18 50  1  0
 21 51  1  0
 21 52  1  0
 22 53  1  0
 22 54  1  0
 23 55  1  0
 23 56  1  0
 24 57  1  0
 24 58  1  0
 29 59  1  0
 30 60  1  0
 31 61  1  0
 32 62  1  0
M  CHG  1   5   1
M  END
>  <score>  (8) 
-10.75

$$$$
=
     RDKit          3D

 62 66  0  0  0  0  0  0  0  0999 V2000
    0.9750   67.0840   68.8340 C   0  0  0  0  0  0  0  0  0  0  0  0
    1.7780   67.8660   69.3460 O   0  0  0  0  0  0  0  0  0  0  0  0
    0.4900   65.9640   69.4520 N   0  0  0  0  0  0  0  0  0  0  0  0
    0.4720   67.3460   67.4110 C   0  0  1  0  0  0  0  0  0  0  0  0
   -1.0370   67.2460   67.4050 N   0  0  0  0  0  4  0  0  0  0  0  0
    0.9100   68.7380   66.9380 C   0  0  0  0  0  0  0  0  0  0  0  0
    1.5900   68.7030   65.6050 C   0  0  0  0  0  0  0  0  0  0  0  0
    1.0240   68.3190   64.4060 C   0  0  0  0  0  0  0  0  0  0  0  0
    1.9790   68.4170   63.4270 N   0  0  0  0  0  0  0  0  0  0  0  0
    3.1740   68.8240   63.9750 C   0  0  0  0  0  0  0  0  0  0  0  0
    2.9540   69.0450   65.3340 C   0  0  0  0  0  0  0  0  0  0  0  0
    4.0240   69.5220   66.1190 C   0  0  0  0  0  0  0  0  0  0  0  0
    5.2720   69.7390   65.5230 C   0  0  0  0  0  0  0  0  0  0  0  0
    5.4620   69.4920   64.1650 C   0  0  0  0  0  0  0  0  0  0  0  0
    4.4140   69.0350   63.3640 C   0  0  0  0  0  0  0  0  0  0  0  0
    0.7960   65.6780   70.8480 C   0  0  0  0  0  0  0  0  0  0  0  0
   -0.0050   64.5020   71.4420 C   0  0  0  0  0  0  0  0  0  0  0  0
    0.4120   63.1600   70.9780 N   0  0  0  0  0  0  0  0  0  0  0  0
    1.2220   62.3670   71.8250 C   0  0  0  0  0  0  0  0  0  0  0  0
    0.7160   61.5750   72.8630 C   0  0  0  0  0  0  0  0  0  0  0  0
   -0.7430   61.3470   73.1560 C   0  0  0  0  0  0  0  0  0  0  0  0
   -1.0220   59.8890   73.5390 C   0  0  0  0  0  0  0  0  0  0  0  0
   -0.0340   59.2860   74.5430 C   0  0  0  0  0  0  0  0  0  0  0  0
    1.1220   60.2080   74.9140 C   0  0  0  0  0  0  0  0  0  0  0  0
    1.6360   60.9510   73.7080 C   0  0  0  0  0  0  0  0  0  0  0  0
    2.9740   61.0020   73.5340 N   0  0  0  0  0  0  0  0  0  0  0  0
    3.4510   61.6320   72.4550 C   0  0  0  0  0  0  0  0  0  0  0  0
    2.6200   62.3280   71.5560 C   0  0  0  0  0  0  0  0  0  0  0  0
    3.2120   62.9560   70.4320 C   0  0  0  0  0  0  0  0  0  0  0  0
    4.5860   62.8970   70.2070 C   0  0  0  0  0  0  0  0  0  0  0  0
    5.3930   62.2200   71.1090 C   0  0  0  0  0  0  0  0  0  0  0  0
    4.8190   61.6010   72.2210 C   0  0  0  0  0  0  0  0  0  0  0  0
   -0.1027   65.3104   68.9206 H   0  0  0  0  0  0  0  0  0  0  0  0
    0.8993   66.6000   66.7247 H   0  0  0  0  0  0  0  0  0  0  0  0
   -1.3834   67.2230   68.3747 H   0  0  0  0  0  0  0  0  0  0  0  0
   -1.4333   68.0626   66.9181 H   0  0  0  0  0  0  0  0  0  0  0  0
   -1.3220   66.3843   66.9181 H   0  0  0  0  0  0  0  0  0  0  0  0
    0.0208   69.3812   66.8636 H   0  0  0  0  0  0  0  0  0  0  0  0
    1.6314   69.1283   67.6710 H   0  0  0  0  0  0  0  0  0  0  0  0
   -0.0157   67.9905   64.2607 H   0  0  0  0  0  0  0  0  0  0  0  0
    1.8248   68.2157   62.4287 H   0  0  0  0  0  0  0  0  0  0  0  0
    3.8792   69.7219   67.1909 H   0  0  0  0  0  0  0  0  0  0  0  0
    6.1102   70.1079   66.1324 H   0  0  0  0  0  0  0  0  0  0  0  0
    6.4527   69.6596   63.7173 H   0  0  0  0  0  0  0  0  0  0  0  0
    4.5586   68.8474   62.2898 H   0  0  0  0  0  0  0  0  0  0  0  0
    1.8671   65.4396   70.9246 H   0  0  0  0  0  0  0  0  0  0  0  0
    0.5168   66.5733   71.4229 H   0  0  0  0  0  0  0  0  0  0  0  0
    0.1044   64.5334   72.5361 H   0  0  0  0  0  0  0  0  0  0  0  0
   -1.0424   64.6351   71.1013 H   0  0  0  0  0  0  0  0  0  0  0  0
    0.1179   62.8095   70.0552 H   0  0  0  0  0  0  0  0  0  0  0  0
   -1.0457   61.9988   73.9888 H   0  0  0  0  0  0  0  0  0  0  0  0
   -1.3163   61.5789   72.2463 H   0  0  0  0  0  0  0  0  0  0  0  0
   -2.0294   59.8376   73.9778 H   0  0  0  0  0  0  0  0  0  0  0  0
   -0.9197   59.3019   72.6144 H   0  0  0  0  0  0  0  0  0  0  0  0
   -0.5850   59.0369   75.4619 H   0  0  0  0  0  0  0  0  0  0  0  0
    0.4090   58.4033   74.0587 H   0  0  0  0  0  0  0  0  0  0  0  0
    0.7746   60.9355   75.6623 H   0  0  0  0  0  0  0  0  0  0  0  0
    1.9401   59.5946   75.3196 H   0  0  0  0  0  0  0  0  0  0  0  0
    2.5733   63.5017   69.7219 H   0  0  0  0  0  0  0  0  0  0  0  0
    5.0258   63.3823   69.3232 H   0  0  0  0  0  0  0  0  0  0  0  0
    6.4802   62.1709   70.9491 H   0  0  0  0  0  0  0  0  0  0  0  0
    5.4702   61.0729   72.9330 H   0  0  0  0  0  0  0  0  0  0  0  0
  2  1  2  0
  3  1  1  0
  4  1  1  0
  5  4  1  0
  6  4  1  0
  7  6  1  0
  8  7  2  0
  9  8  1  0
 10  9  1  0
 11  7  1  0
 11 10  2  0
 12 11  1  0
 13 12  2  0
 14 13  1  0
 15 14  2  0
 15 10  1  0
 16  3  1  0
 17 16  1  0
 18 17  1  0
 19 18  1  0
 20 19  1  0
 21 20  1  0
 22 21  1  0
 23 22  1  0
 24 23  1  0
 25 20  2  0
 25 24  1  0
 26 25  1  0
 27 26  2  0
 28 19  2  0
 28 27  1  0
 29 28  1  0
 30 29  2  0
 31 30  1  0
 32 31  2  0
 32 27  1  0
  3 33  1  0
  4 34  1  6
  5 35  1  0
  5 36  1  0
  5 37  1  0
  6 38  1  0
  6 39  1  0
  8 40  1  0
  9 41  1  0
 12 42  1  0
 13 43  1  0
 14 44  1  0
 15 45  1  0
 16 46  1  0
 16 47  1  0
 17 48  1  0
 17 49  1  0
 18 50  1  0
 21 51  1  0
 21 52  1  0
 22 53  1  0
 22 54  1  0
 23 55  1  0
 23 56  1  0
 24 57  1  0
 24 58  1  0
 29 59  1  0
 30 60  1  0
 31 61  1  0
 32 62  1  0
M  CHG  1   5   1
M  END
>  <score>  (9) 
-10.537

$$$$
