=
     RDKit          3D

 58 59  0  0  0  0  0  0  0  0999 V2000
    1.8130   68.2630   66.0120 C   0  0  2  0  0  0  0  0  0  0  0  0
    2.8060   69.0600   66.8820 C   0  0  0  0  0  0  0  0  0  0  0  0
    4.0640   69.4510   66.3840 C   0  0  0  0  0  0  0  0  0  0  0  0
    4.9530   70.1980   67.1620 C   0  0  0  0  0  0  0  0  0  0  0  0
    4.6090   70.5610   68.4600 C   0  0  0  0  0  0  0  0  0  0  0  0
    3.3790   70.1760   68.9820 C   0  0  0  0  0  0  0  0  0  0  0  0
    2.4870   69.4330   68.2020 C   0  0  0  0  0  0  0  0  0  0  0  0
    1.7910   68.7090   64.5150 C   0  0  0  0  0  0  0  0  0  0  0  0
    2.6860   67.8290   63.6200 C   0  0  0  0  0  0  0  0  0  0  0  0
    2.8040   68.3930   62.2010 C   0  0  0  0  0  0  0  0  0  0  0  0
    1.5660   69.1660   61.7450 C   0  0  0  0  0  0  0  0  0  0  0  0
    0.3030   68.6320   62.3990 C   0  0  0  0  0  0  0  0  0  0  0  0
    0.3550   68.7360   63.9270 C   0  0  0  0  0  0  0  0  0  0  0  0
    0.3930   68.3500   66.6410 C   0  0  0  0  0  0  0  0  0  0  0  0
   -0.2250   69.4070   66.7510 O   0  0  0  0  0  0  0  0  0  0  0  0
   -0.0800   67.1330   67.0300 O   0  0  0  0  0  0  0  0  0  0  0  0
   -0.5810   67.0740   68.3740 C   0  0  0  0  0  0  0  0  0  0  0  0
    1.1590   65.7370   69.8940 C   0  0  0  0  0  0  0  0  0  0  0  0
    0.3980   66.3960   69.2370 C   0  0  0  0  0  0  0  0  0  0  0  0
    2.0400   64.8420   70.6370 C   0  0  0  0  0  0  0  0  0  0  0  0
    2.0540   63.4560   70.0140 N   0  0  0  0  0  4  0  0  0  0  0  0
    4.5400   63.4120   70.3610 C   0  0  0  0  0  0  0  0  0  0  0  0
    3.3960   63.0390   69.4340 C   0  0  0  0  0  0  0  0  0  0  0  0
    1.5000   62.4140   70.9740 C   0  0  0  0  0  0  0  0  0  0  0  0
    0.2030   62.9000   71.5960 C   0  0  0  0  0  0  0  0  0  0  0  0
    2.2120   66.8750   66.0550 O   0  0  0  0  0  0  0  0  0  0  0  0
    4.3527   69.1628   65.3624 H   0  0  0  0  0  0  0  0  0  0  0  0
    5.9262   70.4993   66.7472 H   0  0  0  0  0  0  0  0  0  0  0  0
    5.3077   71.1507   69.0716 H   0  0  0  0  0  0  0  0  0  0  0  0
    3.1070   70.4563   70.0103 H   0  0  0  0  0  0  0  0  0  0  0  0
    1.5177   69.1343   68.6277 H   0  0  0  0  0  0  0  0  0  0  0  0
    2.1943   69.7324   64.5164 H   0  0  0  0  0  0  0  0  0  0  0  0
    3.6902   67.7739   64.0656 H   0  0  0  0  0  0  0  0  0  0  0  0
    2.2267   66.8317   63.5537 H   0  0  0  0  0  0  0  0  0  0  0  0
    3.6695   69.0711   62.1671 H   0  0  0  0  0  0  0  0  0  0  0  0
    2.9176   67.5356   61.5213 H   0  0  0  0  0  0  0  0  0  0  0  0
    1.6872   70.2256   62.0142 H   0  0  0  0  0  0  0  0  0  0  0  0
    1.4671   69.0471   60.6559 H   0  0  0  0  0  0  0  0  0  0  0  0
   -0.5576   69.2114   62.0334 H   0  0  0  0  0  0  0  0  0  0  0  0
    0.2098   67.5681   62.1355 H   0  0  0  0  0  0  0  0  0  0  0  0
   -0.1229   69.6807   64.2255 H   0  0  0  0  0  0  0  0  0  0  0  0
   -0.1669   67.8524   64.3232 H   0  0  0  0  0  0  0  0  0  0  0  0
   -0.7516   68.0950   68.7461 H   0  0  0  0  0  0  0  0  0  0  0  0
   -1.5278   66.5142   68.3863 H   0  0  0  0  0  0  0  0  0  0  0  0
    3.0608   65.2516   70.6276 H   0  0  0  0  0  0  0  0  0  0  0  0
    1.6689   64.7600   71.6693 H   0  0  0  0  0  0  0  0  0  0  0  0
    1.4254   63.5142   69.2001 H   0  0  0  0  0  0  0  0  0  0  0  0
    4.2144   63.3058   71.4063 H   0  0  0  0  0  0  0  0  0  0  0  0
    5.3954   62.7462   70.1740 H   0  0  0  0  0  0  0  0  0  0  0  0
    4.8386   64.4540   70.1740 H   0  0  0  0  0  0  0  0  0  0  0  0
    3.5401   63.5429   68.4669 H   0  0  0  0  0  0  0  0  0  0  0  0
    3.3944   61.9462   69.3082 H   0  0  0  0  0  0  0  0  0  0  0  0
    1.3103   61.4802   70.4245 H   0  0  0  0  0  0  0  0  0  0  0  0
    2.2350   62.2408   71.7738 H   0  0  0  0  0  0  0  0  0  0  0  0
    0.2876   62.8683   72.6923 H   0  0  0  0  0  0  0  0  0  0  0  0
    0.0060   63.9329   71.2732 H   0  0  0  0  0  0  0  0  0  0  0  0
   -0.6243   62.2509   71.2732 H   0  0  0  0  0  0  0  0  0  0  0  0
    2.2955   66.5847   66.9978 H   0  0  0  0  0  0  0  0  0  0  0  0
  2  1  1  0
  3  2  2  0
  4  3  1  0
  5  4  2  0
  6  5  1  0
  7  6  2  0
  7  2  1  0
  8  1  1  0
  9  8  1  0
 10  9  1  0
 11 10  1  0
 12 11  1  0
 13 12  1  0
 13  8  1  0
 14  1  1  0
 15 14  2  0
 16 14  1  0
 17 16  1  0
 19 18  3  0
 19 17  1  0
 20 18  1  0
 21 20  1  0
 23 22  1  0
 23 21  1  0
 24 21  1  0
 25 24  1  0
  1 26  1  6
  3 27  1  0
  4 28  1  0
  5 29  1  0
  6 30  1  0
  7 31  1  0
  8 32  1  0
  9 33  1  0
  9 34  1  0
 10 35  1  0
 10 36  1  0
 11 37  1  0
 11 38  1  0
 12 39  1  0
 12 40  1  0
 13 41  1  0
 13 42  1  0
 17 43  1  0
 17 44  1  0
 20 45  1  0
 20 46  1  0
 21 47  1  0
 22 48  1  0
 22 49  1  0
 22 50  1  0
 23 51  1  0
 23 52  1  0
 24 53  1  0
 24 54  1  0
 25 55  1  0
 25 56  1  0
 25 57  1  0
 26 58  1  0
M  CHG  1  21   1
M  END
>  <score>  (1) 
-9.243

$$$$
=
     RDKit          3D

 58 59  0  0  0  0  0  0  0  0999 V2000
    2.1180   68.3860   66.0520 C   0  0  2  0  0  0  0  0  0  0  0  0
    3.3410   69.1800   66.5540 C   0  0  0  0  0  0  0  0  0  0  0  0
    3.3500   69.7800   67.8280 C   0  0  0  0  0  0  0  0  0  0  0  0
    4.4680   70.4760   68.2950 C   0  0  0  0  0  0  0  0  0  0  0  0
    5.6000   70.5970   67.4940 C   0  0  0  0  0  0  0  0  0  0  0  0
    5.6130   70.0250   66.2270 C   0  0  0  0  0  0  0  0  0  0  0  0
    4.4950   69.3250   65.7610 C   0  0  0  0  0  0  0  0  0  0  0  0
    1.5520   68.8990   64.6900 C   0  0  0  0  0  0  0  0  0  0  0  0
    2.1790   68.1840   63.4780 C   0  0  0  0  0  0  0  0  0  0  0  0
    1.7590   68.8290   62.1540 C   0  0  0  0  0  0  0  0  0  0  0  0
    0.3690   69.4630   62.1970 C   0  0  0  0  0  0  0  0  0  0  0  0
   -0.5420   68.7440   63.1770 C   0  0  0  0  0  0  0  0  0  0  0  0
    0.0080   68.7780   64.6080 C   0  0  0  0  0  0  0  0  0  0  0  0
    1.0170   68.3880   67.1500 C   0  0  0  0  0  0  0  0  0  0  0  0
    0.2690   69.3450   67.3440 O   0  0  0  0  0  0  0  0  0  0  0  0
    0.9710   67.2170   67.8450 O   0  0  0  0  0  0  0  0  0  0  0  0
    1.1170   67.3450   69.2670 C   0  0  0  0  0  0  0  0  0  0  0  0
    1.7300   65.0030   70.3910 C   0  0  0  0  0  0  0  0  0  0  0  0
    1.5050   66.0490   69.8430 C   0  0  0  0  0  0  0  0  0  0  0  0
    1.9130   63.7550   71.1260 C   0  0  0  0  0  0  0  0  0  0  0  0
    3.3380   63.2480   70.9840 N   0  0  0  0  0  4  0  0  0  0  0  0
    5.1500   61.7190   71.8090 C   0  0  0  0  0  0  0  0  0  0  0  0
    3.6690   62.0490   71.8590 C   0  0  0  0  0  0  0  0  0  0  0  0
    3.6940   63.0030   69.5260 C   0  0  0  0  0  0  0  0  0  0  0  0
    2.8870   61.8440   68.9690 C   0  0  0  0  0  0  0  0  0  0  0  0
    2.5330   67.0140   65.8700 O   0  0  0  0  0  0  0  0  0  0  0  0
    2.4592   69.6991   68.4682 H   0  0  0  0  0  0  0  0  0  0  0  0
    4.4536   70.9290   69.2973 H   0  0  0  0  0  0  0  0  0  0  0  0
    6.4810   71.1432   67.8622 H   0  0  0  0  0  0  0  0  0  0  0  0
    6.5041   70.1230   65.5896 H   0  0  0  0  0  0  0  0  0  0  0  0
    4.5181   68.8793   64.7556 H   0  0  0  0  0  0  0  0  0  0  0  0
    1.8283   69.9630   64.6502 H   0  0  0  0  0  0  0  0  0  0  0  0
    3.2745   68.2314   63.5648 H   0  0  0  0  0  0  0  0  0  0  0  0
    1.8258   67.1422   63.4767 H   0  0  0  0  0  0  0  0  0  0  0  0
    2.4902   69.6107   61.9004 H   0  0  0  0  0  0  0  0  0  0  0  0
    1.7254   68.0280   61.4009 H   0  0  0  0  0  0  0  0  0  0  0  0
    0.4654   70.5147   62.5046 H   0  0  0  0  0  0  0  0  0  0  0  0
   -0.0756   69.3870   61.1937 H   0  0  0  0  0  0  0  0  0  0  0  0
   -1.5292   69.2291   63.1649 H   0  0  0  0  0  0  0  0  0  0  0  0
   -0.6106   67.6912   62.8656 H   0  0  0  0  0  0  0  0  0  0  0  0
   -0.4342   69.6408   65.1277 H   0  0  0  0  0  0  0  0  0  0  0  0
   -0.2602   67.8183   65.0739 H   0  0  0  0  0  0  0  0  0  0  0  0
    1.8938   68.0914   69.4893 H   0  0  0  0  0  0  0  0  0  0  0  0
    0.1603   67.6668   69.7044 H   0  0  0  0  0  0  0  0  0  0  0  0
    1.6966   63.9285   72.1904 H   0  0  0  0  0  0  0  0  0  0  0  0
    1.2278   62.9997   70.7136 H   0  0  0  0  0  0  0  0  0  0  0  0
    3.9368   64.0062   71.3410 H   0  0  0  0  0  0  0  0  0  0  0  0
    5.5410   61.6319   72.8335 H   0  0  0  0  0  0  0  0  0  0  0  0
    5.2957   60.7664   71.2787 H   0  0  0  0  0  0  0  0  0  0  0  0
    5.6864   62.5197   71.2787 H   0  0  0  0  0  0  0  0  0  0  0  0
    3.0963   61.1789   71.5055 H   0  0  0  0  0  0  0  0  0  0  0  0
    3.4039   62.2948   72.8979 H   0  0  0  0  0  0  0  0  0  0  0  0
    3.4754   63.9097   68.9427 H   0  0  0  0  0  0  0  0  0  0  0  0
    4.7639   62.7568   69.4576 H   0  0  0  0  0  0  0  0  0  0  0  0
    2.4747   61.2518   69.7992 H   0  0  0  0  0  0  0  0  0  0  0  0
    2.0637   62.2334   68.3521 H   0  0  0  0  0  0  0  0  0  0  0  0
    3.5379   61.2070   68.3521 H   0  0  0  0  0  0  0  0  0  0  0  0
    2.6618   66.5881   66.7544 H   0  0  0  0  0  0  0  0  0  0  0  0
  2  1  1  0
  3  2  2  0
  4  3  1  0
  5  4  2  0
  6  5  1  0
  7  6  2  0
  7  2  1  0
  8  1  1  0
  9  8  1  0
 10  9  1  0
 11 10  1  0
 12 11  1  0
 13 12  1  0
 13  8  1  0
 14  1  1  0
 15 14  2  0
 16 14  1  0
 17 16  1  0
 19 18  3  0
 19 17  1  0
 20 18  1  0
 21 20  1  0
 23 22  1  0
 23 21  1  0
 24 21  1  0
 25 24  1  0
  1 26  1  6
  3 27  1  0
  4 28  1  0
  5 29  1  0
  6 30  1  0
  7 31  1  0
  8 32  1  0
  9 33  1  0
  9 34  1  0
 10 35  1  0
 10 36  1  0
 11 37  1  0
 11 38  1  0
 12 39  1  0
 12 40  1  0
 13 41  1  0
 13 42  1  0
 17 43  1  0
 17 44  1  0
 20 45  1  0
 20 46  1  0
 21 47  1  0
 22 48  1  0
 22 49  1  0
 22 50  1  0
 23 51  1  0
 23 52  1  0
 24 53  1  0
 24 54  1  0
 25 55  1  0
 25 56  1  0
 25 57  1  0
 26 58  1  0
M  CHG  1  21   1
M  END
>  <score>  (2) 
-8.984

$$$$
=
     RDKit          3D

 58 59  0  0  0  0  0  0  0  0999 V2000
    2.2240   67.2300   64.9720 C   0  0  2  0  0  0  0  0  0  0  0  0
    1.6850   68.0700   63.7960 C   0  0  0  0  0  0  0  0  0  0  0  0
    2.4480   68.2710   62.6300 C   0  0  0  0  0  0  0  0  0  0  0  0
    1.9500   69.0080   61.5530 C   0  0  0  0  0  0  0  0  0  0  0  0
    0.6790   69.5720   61.6220 C   0  0  0  0  0  0  0  0  0  0  0  0
   -0.0910   69.4010   62.7670 C   0  0  0  0  0  0  0  0  0  0  0  0
    0.4070   68.6590   63.8430 C   0  0  0  0  0  0  0  0  0  0  0  0
    2.8880   68.0820   66.1000 C   0  0  0  0  0  0  0  0  0  0  0  0
    3.7290   69.2490   65.5470 C   0  0  0  0  0  0  0  0  0  0  0  0
    4.5240   69.9530   66.6500 C   0  0  0  0  0  0  0  0  0  0  0  0
    3.8420   69.9120   68.0170 C   0  0  0  0  0  0  0  0  0  0  0  0
    2.3290   69.8710   67.8840 C   0  0  0  0  0  0  0  0  0  0  0  0
    1.8500   68.6390   67.1100 C   0  0  0  0  0  0  0  0  0  0  0  0
    3.2110   66.1580   64.4280 C   0  0  0  0  0  0  0  0  0  0  0  0
    4.2840   66.4440   63.9000 O   0  0  0  0  0  0  0  0  0  0  0  0
    2.7590   64.8880   64.6210 O   0  0  0  0  0  0  0  0  0  0  0  0
    3.7800   63.8990   64.8180 C   0  0  0  0  0  0  0  0  0  0  0  0
    3.7880   63.1630   67.3830 C   0  0  0  0  0  0  0  0  0  0  0  0
    3.7570   63.4350   66.2130 C   0  0  0  0  0  0  0  0  0  0  0  0
    3.8700   62.9380   68.8230 C   0  0  0  0  0  0  0  0  0  0  0  0
    2.8050   61.9540   69.2780 N   0  0  0  0  0  4  0  0  0  0  0  0
    4.6940   60.8200   70.4830 C   0  0  0  0  0  0  0  0  0  0  0  0
    3.3500   60.6340   69.8020 C   0  0  0  0  0  0  0  0  0  0  0  0
    1.8400   62.6010   70.2600 C   0  0  0  0  0  0  0  0  0  0  0  0
    2.5120   63.7550   70.9830 C   0  0  0  0  0  0  0  0  0  0  0  0
    1.1060   66.5220   65.5510 O   0  0  0  0  0  0  0  0  0  0  0  0
    3.4574   67.8386   62.5658 H   0  0  0  0  0  0  0  0  0  0  0  0
    2.5627   69.1429   60.6494 H   0  0  0  0  0  0  0  0  0  0  0  0
    0.2853   70.1509   60.7736 H   0  0  0  0  0  0  0  0  0  0  0  0
   -1.0934   69.8500   62.8267 H   0  0  0  0  0  0  0  0  0  0  0  0
   -0.2119   68.5331   64.7436 H   0  0  0  0  0  0  0  0  0  0  0  0
    3.5576   67.3851   66.6253 H   0  0  0  0  0  0  0  0  0  0  0  0
    4.4318   68.8568   64.7972 H   0  0  0  0  0  0  0  0  0  0  0  0
    3.0417   69.9829   65.1008 H   0  0  0  0  0  0  0  0  0  0  0  0
    5.5060   69.4649   66.7365 H   0  0  0  0  0  0  0  0  0  0  0  0
    4.6068   71.0115   66.3625 H   0  0  0  0  0  0  0  0  0  0  0  0
    4.1777   69.0144   68.5570 H   0  0  0  0  0  0  0  0  0  0  0  0
    4.1153   70.8250   68.5663 H   0  0  0  0  0  0  0  0  0  0  0  0
    1.8852   69.8519   68.8903 H   0  0  0  0  0  0  0  0  0  0  0  0
    2.0145   70.7647   67.3250 H   0  0  0  0  0  0  0  0  0  0  0  0
    1.6135   67.8461   67.8349 H   0  0  0  0  0  0  0  0  0  0  0  0
    0.9742   68.9537   66.5235 H   0  0  0  0  0  0  0  0  0  0  0  0
    3.5986   63.0471   64.1461 H   0  0  0  0  0  0  0  0  0  0  0  0
    4.7629   64.3406   64.5969 H   0  0  0  0  0  0  0  0  0  0  0  0
    4.8630   62.5335   69.0686 H   0  0  0  0  0  0  0  0  0  0  0  0
    3.7078   63.8959   69.3389 H   0  0  0  0  0  0  0  0  0  0  0  0
    2.2819   61.7014   68.4274 H   0  0  0  0  0  0  0  0  0  0  0  0
    4.5578   60.8011   71.5744 H   0  0  0  0  0  0  0  0  0  0  0  0
    5.3722   60.0071   70.1840 H   0  0  0  0  0  0  0  0  0  0  0  0
    5.1259   61.7865   70.1840 H   0  0  0  0  0  0  0  0  0  0  0  0
    3.4692   59.9366   68.9597 H   0  0  0  0  0  0  0  0  0  0  0  0
    2.6397   60.2358   70.5415 H   0  0  0  0  0  0  0  0  0  0  0  0
    0.9641   62.9781   69.7117 H   0  0  0  0  0  0  0  0  0  0  0  0
    1.5288   61.8497   71.0007 H   0  0  0  0  0  0  0  0  0  0  0  0
    2.4258   63.6069   72.0696 H   0  0  0  0  0  0  0  0  0  0  0  0
    3.5746   63.7950   70.7016 H   0  0  0  0  0  0  0  0  0  0  0  0
    2.0224   64.6990   70.7016 H   0  0  0  0  0  0  0  0  0  0  0  0
    1.1667   66.5604   66.5384 H   0  0  0  0  0  0  0  0  0  0  0  0
  2  1  1  0
  3  2  2  0
  4  3  1  0
  5  4  2  0
  6  5  1  0
  7  6  2  0
  7  2  1  0
  8  1  1  0
  9  8  1  0
 10  9  1  0
 11 10  1  0
 12 11  1  0
 13 12  1  0
 13  8  1  0
 14  1  1  0
 15 14  2  0
 16 14  1  0
 17 16  1  0
 19 18  3  0
 19 17  1  0
 20 18  1  0
 21 20  1  0
 23 22  1  0
 23 21  1  0
 24 21  1  0
 25 24  1  0
  1 26  1  1
  3 27  1  0
  4 28  1  0
  5 29  1  0
  6 30  1  0
  7 31  1  0
  8 32  1  0
  9 33  1  0
  9 34  1  0
 10 35  1  0
 10 36  1  0
 11 37  1  0
 11 38  1  0
 12 39  1  0
 12 40  1  0
 13 41  1  0
 13 42  1  0
 17 43  1  0
 17 44  1  0
 20 45  1  0
 20 46  1  0
 21 47  1  0
 22 48  1  0
 22 49  1  0
 22 50  1  0
 23 51  1  0
 23 52  1  0
 24 53  1  0
 24 54  1  0
 25 55  1  0
 25 56  1  0
 25 57  1  0
 26 58  1  0
M  CHG  1  21   1
M  END
>  <score>  (3) 
-8.889

$$$$
=
     RDKit          3D

 58 59  0  0  0  0  0  0  0  0999 V2000
    4.1880   68.0790   63.5500 C   0  0  2  0  0  0  0  0  0  0  0  0
    4.0190   66.5950   63.9320 C   0  0  0  0  0  0  0  0  0  0  0  0
    5.0160   65.6450   63.6380 C   0  0  0  0  0  0  0  0  0  0  0  0
    4.8760   64.3050   64.0090 C   0  0  0  0  0  0  0  0  0  0  0  0
    3.7290   63.8810   64.6730 C   0  0  0  0  0  0  0  0  0  0  0  0
    2.7220   64.7960   64.9640 C   0  0  0  0  0  0  0  0  0  0  0  0
    2.8650   66.1380   64.5970 C   0  0  0  0  0  0  0  0  0  0  0  0
    4.2570   69.0410   64.7790 C   0  0  0  0  0  0  0  0  0  0  0  0
    3.4680   68.5120   65.9920 C   0  0  0  0  0  0  0  0  0  0  0  0
    3.3850   69.5500   67.1150 C   0  0  0  0  0  0  0  0  0  0  0  0
    4.5920   70.4870   67.1730 C   0  0  0  0  0  0  0  0  0  0  0  0
    5.8520   69.8030   66.6690 C   0  0  0  0  0  0  0  0  0  0  0  0
    5.7160   69.3400   65.2140 C   0  0  0  0  0  0  0  0  0  0  0  0
    3.0450   68.4940   62.5800 C   0  0  0  0  0  0  0  0  0  0  0  0
    3.0180   68.1600   61.3980 O   0  0  0  0  0  0  0  0  0  0  0  0
    2.0880   69.2440   63.1950 O   0  0  0  0  0  0  0  0  0  0  0  0
    0.7800   68.6540   63.2320 C   0  0  0  0  0  0  0  0  0  0  0  0
   -0.0730   68.7210   65.7600 C   0  0  0  0  0  0  0  0  0  0  0  0
    0.2510   68.7120   64.6030 C   0  0  0  0  0  0  0  0  0  0  0  0
   -0.3580   68.6950   67.1910 C   0  0  0  0  0  0  0  0  0  0  0  0
   -0.0920   67.3160   67.7700 N   0  0  0  0  0  4  0  0  0  0  0  0
    0.8450   66.1780   69.8020 C   0  0  0  0  0  0  0  0  0  0  0  0
    1.0610   67.2600   68.7600 C   0  0  0  0  0  0  0  0  0  0  0  0
   -1.3610   66.7020   68.3410 C   0  0  0  0  0  0  0  0  0  0  0  0
   -2.5070   66.8340   67.3520 C   0  0  0  0  0  0  0  0  0  0  0  0
    5.4290   68.2020   62.8210 O   0  0  0  0  0  0  0  0  0  0  0  0
    5.9239   65.9643   63.1052 H   0  0  0  0  0  0  0  0  0  0  0  0
    5.6737   63.5843   63.7758 H   0  0  0  0  0  0  0  0  0  0  0  0
    3.6188   62.8267   64.9667 H   0  0  0  0  0  0  0  0  0  0  0  0
    1.8115   64.4632   65.4838 H   0  0  0  0  0  0  0  0  0  0  0  0
    2.0604   66.8502   64.8324 H   0  0  0  0  0  0  0  0  0  0  0  0
    3.7887   69.9755   64.4364 H   0  0  0  0  0  0  0  0  0  0  0  0
    2.4484   68.2553   65.6687 H   0  0  0  0  0  0  0  0  0  0  0  0
    3.9941   67.6283   66.3823 H   0  0  0  0  0  0  0  0  0  0  0  0
    2.4806   70.1570   66.9613 H   0  0  0  0  0  0  0  0  0  0  0  0
    3.3607   68.9961   68.0651 H   0  0  0  0  0  0  0  0  0  0  0  0
    4.3899   71.3695   66.5482 H   0  0  0  0  0  0  0  0  0  0  0  0
    4.7530   70.7784   68.2214 H   0  0  0  0  0  0  0  0  0  0  0  0
    6.6914   70.5105   66.7388 H   0  0  0  0  0  0  0  0  0  0  0  0
    6.0260   68.9133   67.2920 H   0  0  0  0  0  0  0  0  0  0  0  0
    6.1163   70.1297   64.5612 H   0  0  0  0  0  0  0  0  0  0  0  0
    6.2730   68.3953   65.1280 H   0  0  0  0  0  0  0  0  0  0  0  0
    0.1098   69.2069   62.5574 H   0  0  0  0  0  0  0  0  0  0  0  0
    0.8435   67.6044   62.9092 H   0  0  0  0  0  0  0  0  0  0  0  0
    0.2837   69.4295   67.6997 H   0  0  0  0  0  0  0  0  0  0  0  0
   -1.4190   68.9423   67.3433 H   0  0  0  0  0  0  0  0  0  0  0  0
    0.2178   66.7399   66.9744 H   0  0  0  0  0  0  0  0  0  0  0  0
    0.9322   66.6149   70.8077 H   0  0  0  0  0  0  0  0  0  0  0  0
   -0.1577   65.7433   69.6768 H   0  0  0  0  0  0  0  0  0  0  0  0
    1.6039   65.3916   69.6768 H   0  0  0  0  0  0  0  0  0  0  0  0
    1.1452   68.2328   69.2665 H   0  0  0  0  0  0  0  0  0  0  0  0
    1.9820   67.0272   68.2055 H   0  0  0  0  0  0  0  0  0  0  0  0
   -1.1850   65.6367   68.5512 H   0  0  0  0  0  0  0  0  0  0  0  0
   -1.6273   67.2320   69.2673 H   0  0  0  0  0  0  0  0  0  0  0  0
   -3.4541   66.9431   67.9007 H   0  0  0  0  0  0  0  0  0  0  0  0
   -2.3455   67.7195   66.7197 H   0  0  0  0  0  0  0  0  0  0  0  0
   -2.5510   65.9350   66.7197 H   0  0  0  0  0  0  0  0  0  0  0  0
    6.1812   68.2766   63.4603 H   0  0  0  0  0  0  0  0  0  0  0  0
  2  1  1  0
  3  2  2  0
  4  3  1  0
  5  4  2  0
  6  5  1  0
  7  6  2  0
  7  2  1  0
  8  1  1  0
  9  8  1  0
 10  9  1  0
 11 10  1  0
 12 11  1  0
 13 12  1  0
 13  8  1  0
 14  1  1  0
 15 14  2  0
 16 14  1  0
 17 16  1  0
 19 18  3  0
 19 17  1  0
 20 18  1  0
 21 20  1  0
 23 22  1  0
 23 21  1  0
 24 21  1  0
 25 24  1  0
  1 26  1  6
  3 27  1  0
  4 28  1  0
  5 29  1  0
  6 30  1  0
  7 31  1  0
  8 32  1  0
  9 33  1  0
  9 34  1  0
 10 35  1  0
 10 36  1  0
 11 37  1  0
 11 38  1  0
 12 39  1  0
 12 40  1  0
 13 41  1  0
 13 42  1  0
 17 43  1  0
 17 44  1  0
 20 45  1  0
 20 46  1  0
 21 47  1  0
 22 48  1  0
 22 49  1  0
 22 50  1  0
 23 51  1  0
 23 52  1  0
 24 53  1  0
 24 54  1  0
 25 55  1  0
 25 56  1  0
 25 57  1  0
 26 58  1  0
M  CHG  1  21   1
M  END
>  <score>  (4) 
-8.545

$$$$
=
     RDKit          3D

 58 59  0  0  0  0  0  0  0  0999 V2000
    2.1440   68.0720   65.8240 C   0  0  2  0  0  0  0  0  0  0  0  0
    2.8570   66.9760   65.0060 C   0  0  0  0  0  0  0  0  0  0  0  0
    3.6300   67.2960   63.8730 C   0  0  0  0  0  0  0  0  0  0  0  0
    4.2990   66.3070   63.1470 C   0  0  0  0  0  0  0  0  0  0  0  0
    4.2020   64.9730   63.5330 C   0  0  0  0  0  0  0  0  0  0  0  0
    3.4350   64.6280   64.6400 C   0  0  0  0  0  0  0  0  0  0  0  0
    2.7690   65.6180   65.3680 C   0  0  0  0  0  0  0  0  0  0  0  0
    3.0630   68.7680   66.8780 C   0  0  0  0  0  0  0  0  0  0  0  0
    4.1770   69.6130   66.2300 C   0  0  0  0  0  0  0  0  0  0  0  0
    5.1790   70.1290   67.2660 C   0  0  0  0  0  0  0  0  0  0  0  0
    4.5660   70.3650   68.6460 C   0  0  0  0  0  0  0  0  0  0  0  0
    3.0980   70.7470   68.5440 C   0  0  0  0  0  0  0  0  0  0  0  0
    2.2630   69.6560   67.8660 C   0  0  0  0  0  0  0  0  0  0  0  0
    0.8790   67.4690   66.4990 C   0  0  0  0  0  0  0  0  0  0  0  0
   -0.2220   67.4450   65.9540 O   0  0  0  0  0  0  0  0  0  0  0  0
    1.1400   66.9650   67.7380 O   0  0  0  0  0  0  0  0  0  0  0  0
    0.0500   67.0360   68.6690 C   0  0  0  0  0  0  0  0  0  0  0  0
    0.4500   65.1680   70.5330 C   0  0  0  0  0  0  0  0  0  0  0  0
    0.2050   65.9920   69.6930 C   0  0  0  0  0  0  0  0  0  0  0  0
    0.8580   64.2030   71.5480 C   0  0  0  0  0  0  0  0  0  0  0  0
    1.8470   63.2010   70.9750 N   0  0  0  0  0  4  0  0  0  0  0  0
    3.5410   62.9500   69.1390 C   0  0  0  0  0  0  0  0  0  0  0  0
    3.0420   63.8270   70.2730 C   0  0  0  0  0  0  0  0  0  0  0  0
    2.2710   62.1830   72.0220 C   0  0  0  0  0  0  0  0  0  0  0  0
    1.2090   61.1090   72.1800 C   0  0  0  0  0  0  0  0  0  0  0  0
    1.6900   69.0820   64.8970 O   0  0  0  0  0  0  0  0  0  0  0  0
    3.7087   68.3455   63.5532 H   0  0  0  0  0  0  0  0  0  0  0  0
    4.9027   66.5828   62.2698 H   0  0  0  0  0  0  0  0  0  0  0  0
    4.7307   64.1942   62.9638 H   0  0  0  0  0  0  0  0  0  0  0  0
    3.3521   63.5740   64.9435 H   0  0  0  0  0  0  0  0  0  0  0  0
    2.1643   65.3307   66.2408 H   0  0  0  0  0  0  0  0  0  0  0  0
    3.5287   67.9433   67.4374 H   0  0  0  0  0  0  0  0  0  0  0  0
    4.7122   68.9928   65.4960 H   0  0  0  0  0  0  0  0  0  0  0  0
    3.7076   70.4829   65.7475 H   0  0  0  0  0  0  0  0  0  0  0  0
    5.9872   69.3896   67.3664 H   0  0  0  0  0  0  0  0  0  0  0  0
    5.5441   71.1017   66.9048 H   0  0  0  0  0  0  0  0  0  0  0  0
    4.6553   69.4432   69.2395 H   0  0  0  0  0  0  0  0  0  0  0  0
    5.1063   71.1936   69.1272 H   0  0  0  0  0  0  0  0  0  0  0  0
    2.7046   70.9162   69.5572 H   0  0  0  0  0  0  0  0  0  0  0  0
    3.0273   71.6573   67.9305 H   0  0  0  0  0  0  0  0  0  0  0  0
    1.8406   69.0082   68.6482 H   0  0  0  0  0  0  0  0  0  0  0  0
    1.4897   70.1695   67.2758 H   0  0  0  0  0  0  0  0  0  0  0  0
    0.0453   68.0243   69.1520 H   0  0  0  0  0  0  0  0  0  0  0  0
   -0.8981   66.8828   68.1327 H   0  0  0  0  0  0  0  0  0  0  0  0
    1.3309   64.7381   72.3847 H   0  0  0  0  0  0  0  0  0  0  0  0
   -0.0329   63.6593   71.8953 H   0  0  0  0  0  0  0  0  0  0  0  0
    1.3363   62.7059   70.2300 H   0  0  0  0  0  0  0  0  0  0  0  0
    4.0447   62.0647   69.5545 H   0  0  0  0  0  0  0  0  0  0  0  0
    2.6893   62.6307   68.5204 H   0  0  0  0  0  0  0  0  0  0  0  0
    4.2506   63.5190   68.5204 H   0  0  0  0  0  0  0  0  0  0  0  0
    3.8537   63.9647   71.0025 H   0  0  0  0  0  0  0  0  0  0  0  0
    2.7281   64.7930   69.8508 H   0  0  0  0  0  0  0  0  0  0  0  0
    3.2160   61.7145   71.7096 H   0  0  0  0  0  0  0  0  0  0  0  0
    2.4031   62.6973   72.9854 H   0  0  0  0  0  0  0  0  0  0  0  0
    1.0285   60.9264   73.2496 H   0  0  0  0  0  0  0  0  0  0  0  0
    0.2760   61.4428   71.7024 H   0  0  0  0  0  0  0  0  0  0  0  0
    1.5533   60.1798   71.7024 H   0  0  0  0  0  0  0  0  0  0  0  0
    1.3406   69.8593   65.4009 H   0  0  0  0  0  0  0  0  0  0  0  0
  2  1  1  0
  3  2  2  0
  4  3  1  0
  5  4  2  0
  6  5  1  0
  7  6  2  0
  7  2  1  0
  8  1  1  0
  9  8  1  0
 10  9  1  0
 11 10  1  0
 12 11  1  0
 13 12  1  0
 13  8  1  0
 14  1  1  0
 15 14  2  0
 16 14  1  0
 17 16  1  0
 19 18  3  0
 19 17  1  0
 20 18  1  0
 21 20  1  0
 23 22  1  0
 23 21  1  0
 24 21  1  0
 25 24  1  0
  1 26  1  6
  3 27  1  0
  4 28  1  0
  5 29  1  0
  6 30  1  0
  7 31  1  0
  8 32  1  0
  9 33  1  0
  9 34  1  0
 10 35  1  0
 10 36  1  0
 11 37  1  0
 11 38  1  0
 12 39  1  0
 12 40  1  0
 13 41  1  0
 13 42  1  0
 17 43  1  0
 17 44  1  0
 20 45  1  0
 20 46  1  0
 21 47  1  0
 22 48  1  0
 22 49  1  0
 22 50  1  0
 23 51  1  0
 23 52  1  0
 24 53  1  0
 24 54  1  0
 25 55  1  0
 25 56  1  0
 25 57  1  0
 26 58  1  0
M  CHG  1  21   1
M  END
>  <score>  (5) 
-8.521

$$$$
=
     RDKit          3D

 58 59  0  0  0  0  0  0  0  0999 V2000
    0.8130   68.3440   67.4000 C   0  0  2  0  0  0  0  0  0  0  0  0
    2.2130   68.9860   67.3260 C   0  0  0  0  0  0  0  0  0  0  0  0
    2.7160   69.7670   68.3850 C   0  0  0  0  0  0  0  0  0  0  0  0
    3.9960   70.3260   68.3310 C   0  0  0  0  0  0  0  0  0  0  0  0
    4.7980   70.1270   67.2110 C   0  0  0  0  0  0  0  0  0  0  0  0
    4.3200   69.3720   66.1460 C   0  0  0  0  0  0  0  0  0  0  0  0
    3.0420   68.8080   66.2020 C   0  0  0  0  0  0  0  0  0  0  0  0
    0.7450   67.0910   68.3300 C   0  0  0  0  0  0  0  0  0  0  0  0
    1.7010   67.1910   69.5340 C   0  0  0  0  0  0  0  0  0  0  0  0
    1.7640   65.8810   70.3240 C   0  0  0  0  0  0  0  0  0  0  0  0
    0.4650   65.0760   70.2780 C   0  0  0  0  0  0  0  0  0  0  0  0
   -0.7460   65.9810   70.1300 C   0  0  0  0  0  0  0  0  0  0  0  0
   -0.6920   66.8130   68.8440 C   0  0  0  0  0  0  0  0  0  0  0  0
    0.3290   67.9990   65.9630 C   0  0  0  0  0  0  0  0  0  0  0  0
    0.4450   66.8790   65.4700 O   0  0  0  0  0  0  0  0  0  0  0  0
   -0.2440   69.0640   65.3360 O   0  0  0  0  0  0  0  0  0  0  0  0
   -0.4420   68.9080   63.9230 C   0  0  0  0  0  0  0  0  0  0  0  0
    1.8830   68.6300   62.6440 C   0  0  0  0  0  0  0  0  0  0  0  0
    0.8610   68.8110   63.2480 C   0  0  0  0  0  0  0  0  0  0  0  0
    3.0760   68.3170   61.8620 C   0  0  0  0  0  0  0  0  0  0  0  0
    4.1400   67.6740   62.7350 N   0  0  0  0  0  4  0  0  0  0  0  0
    4.5350   65.5810   64.0630 C   0  0  0  0  0  0  0  0  0  0  0  0
    4.1370   66.1540   62.7150 C   0  0  0  0  0  0  0  0  0  0  0  0
    5.5180   68.2450   62.4360 C   0  0  0  0  0  0  0  0  0  0  0  0
    5.6850   69.6030   63.0950 C   0  0  0  0  0  0  0  0  0  0  0  0
   -0.0950   69.3360   67.9270 O   0  0  0  0  0  0  0  0  0  0  0  0
    2.0890   69.9404   69.2720 H   0  0  0  0  0  0  0  0  0  0  0  0
    4.3701   70.9241   69.1750 H   0  0  0  0  0  0  0  0  0  0  0  0
    5.8060   70.5653   67.1687 H   0  0  0  0  0  0  0  0  0  0  0  0
    4.9490   69.2180   65.2569 H   0  0  0  0  0  0  0  0  0  0  0  0
    2.6770   68.2136   65.3514 H   0  0  0  0  0  0  0  0  0  0  0  0
    1.0656   66.2501   67.6975 H   0  0  0  0  0  0  0  0  0  0  0  0
    2.7094   67.4343   69.1680 H   0  0  0  0  0  0  0  0  0  0  0  0
    1.3224   67.9758   70.2054 H   0  0  0  0  0  0  0  0  0  0  0  0
    2.5719   65.2618   69.9070 H   0  0  0  0  0  0  0  0  0  0  0  0
    1.9418   66.1470   71.3764 H   0  0  0  0  0  0  0  0  0  0  0  0
    0.5023   64.3860   69.4221 H   0  0  0  0  0  0  0  0  0  0  0  0
    0.3685   64.5223   71.2236 H   0  0  0  0  0  0  0  0  0  0  0  0
   -1.6531   65.3591   70.1120 H   0  0  0  0  0  0  0  0  0  0  0  0
   -0.7547   66.6762   70.9824 H   0  0  0  0  0  0  0  0  0  0  0  0
   -1.2411   66.2721   68.0592 H   0  0  0  0  0  0  0  0  0  0  0  0
   -1.1396   67.7899   69.0790 H   0  0  0  0  0  0  0  0  0  0  0  0
   -1.0210   67.9921   63.7338 H   0  0  0  0  0  0  0  0  0  0  0  0
   -0.9903   69.7784   63.5335 H   0  0  0  0  0  0  0  0  0  0  0  0
    2.8050   67.6225   61.0532 H   0  0  0  0  0  0  0  0  0  0  0  0
    3.4795   69.2516   61.4451 H   0  0  0  0  0  0  0  0  0  0  0  0
    3.8891   67.9223   63.7026 H   0  0  0  0  0  0  0  0  0  0  0  0
    4.1057   66.1990   64.8653 H   0  0  0  0  0  0  0  0  0  0  0  0
    4.1562   64.5520   64.1503 H   0  0  0  0  0  0  0  0  0  0  0  0
    5.6315   65.5767   64.1503 H   0  0  0  0  0  0  0  0  0  0  0  0
    4.8497   65.8048   61.9533 H   0  0  0  0  0  0  0  0  0  0  0  0
    3.1175   65.8131   62.4816 H   0  0  0  0  0  0  0  0  0  0  0  0
    6.2859   67.5584   62.8218 H   0  0  0  0  0  0  0  0  0  0  0  0
    5.6264   68.3618   61.3476 H   0  0  0  0  0  0  0  0  0  0  0  0
    5.6704   69.4842   64.1885 H   0  0  0  0  0  0  0  0  0  0  0  0
    6.6442   70.0446   62.7869 H   0  0  0  0  0  0  0  0  0  0  0  0
    4.8614   70.2638   62.7869 H   0  0  0  0  0  0  0  0  0  0  0  0
   -0.0725   69.3114   68.9164 H   0  0  0  0  0  0  0  0  0  0  0  0
  2  1  1  0
  3  2  2  0
  4  3  1  0
  5  4  2  0
  6  5  1  0
  7  6  2  0
  7  2  1  0
  8  1  1  0
  9  8  1  0
 10  9  1  0
 11 10  1  0
 12 11  1  0
 13 12  1  0
 13  8  1  0
 14  1  1  0
 15 14  2  0
 16 14  1  0
 17 16  1  0
 19 18  3  0
 19 17  1  0
 20 18  1  0
 21 20  1  0
 23 22  1  0
 23 21  1  0
 24 21  1  0
 25 24  1  0
  1 26  1  1
  3 27  1  0
  4 28  1  0
  5 29  1  0
  6 30  1  0
  7 31  1  0
  8 32  1  0
  9 33  1  0
  9 34  1  0
 10 35  1  0
 10 36  1  0
 11 37  1  0
 11 38  1  0
 12 39  1  0
 12 40  1  0
 13 41  1  0
 13 42  1  0
 17 43  1  0
 17 44  1  0
 20 45  1  0
 20 46  1  0
 21 47  1  0
 22 48  1  0
 22 49  1  0
 22 50  1  0
 23 51  1  0
 23 52  1  0
 24 53  1  0
 24 54  1  0
 25 55  1  0
 25 56  1  0
 25 57  1  0
 26 58  1  0
M  CHG  1  21   1
M  END
>  <score>  (6) 
-8.309

$$$$
=
     RDKit          3D

 58 59  0  0  0  0  0  0  0  0999 V2000
    2.4090   61.6400   72.6480 C   0  0  2  0  0  0  0  0  0  0  0  0
    2.9420   62.0930   71.2740 C   0  0  0  0  0  0  0  0  0  0  0  0
    3.9660   63.0540   71.1680 C   0  0  0  0  0  0  0  0  0  0  0  0
    4.4690   63.4450   69.9240 C   0  0  0  0  0  0  0  0  0  0  0  0
    3.9510   62.8910   68.7570 C   0  0  0  0  0  0  0  0  0  0  0  0
    2.9300   61.9500   68.8330 C   0  0  0  0  0  0  0  0  0  0  0  0
    2.4300   61.5560   70.0780 C   0  0  0  0  0  0  0  0  0  0  0  0
    1.7920   60.2050   72.6410 C   0  0  0  0  0  0  0  0  0  0  0  0
    2.8580   59.0990   72.7650 C   0  0  0  0  0  0  0  0  0  0  0  0
    2.2600   57.7040   72.5640 C   0  0  0  0  0  0  0  0  0  0  0  0
    0.8010   57.5930   73.0070 C   0  0  0  0  0  0  0  0  0  0  0  0
    0.4920   58.5500   74.1470 C   0  0  0  0  0  0  0  0  0  0  0  0
    0.7290   60.0120   73.7550 C   0  0  0  0  0  0  0  0  0  0  0  0
    1.3830   62.6850   73.1720 C   0  0  0  0  0  0  0  0  0  0  0  0
    1.3740   63.0890   74.3330 O   0  0  0  0  0  0  0  0  0  0  0  0
    0.5230   63.1030   72.2020 O   0  0  0  0  0  0  0  0  0  0  0  0
    0.0700   64.4590   72.3290 C   0  0  0  0  0  0  0  0  0  0  0  0
    0.7680   65.9400   70.2210 C   0  0  0  0  0  0  0  0  0  0  0  0
    0.4470   65.2210   71.1290 C   0  0  0  0  0  0  0  0  0  0  0  0
    1.1700   66.8990   69.1970 C   0  0  0  0  0  0  0  0  0  0  0  0
    0.2650   66.8000   67.9800 N   0  0  0  0  0  4  0  0  0  0  0  0
   -2.0600   67.2620   67.1550 C   0  0  0  0  0  0  0  0  0  0  0  0
   -1.2200   66.7360   68.3040 C   0  0  0  0  0  0  0  0  0  0  0  0
    0.5800   67.8910   66.9680 C   0  0  0  0  0  0  0  0  0  0  0  0
    1.2530   69.0700   67.6490 C   0  0  0  0  0  0  0  0  0  0  0  0
    3.5220   61.6390   73.5690 O   0  0  0  0  0  0  0  0  0  0  0  0
    4.3781   63.5058   72.0824 H   0  0  0  0  0  0  0  0  0  0  0  0
    5.2751   64.1913   69.8672 H   0  0  0  0  0  0  0  0  0  0  0  0
    4.3480   63.1965   67.7777 H   0  0  0  0  0  0  0  0  0  0  0  0
    2.5149   61.5148   67.9120 H   0  0  0  0  0  0  0  0  0  0  0  0
    1.6210   60.8121   70.1235 H   0  0  0  0  0  0  0  0  0  0  0  0
    1.3015   60.1114   71.6609 H   0  0  0  0  0  0  0  0  0  0  0  0
    3.6341   59.2662   72.0036 H   0  0  0  0  0  0  0  0  0  0  0  0
    3.2808   59.1455   73.7794 H   0  0  0  0  0  0  0  0  0  0  0  0
    2.3189   57.4513   71.4950 H   0  0  0  0  0  0  0  0  0  0  0  0
    2.8406   57.0112   73.1907 H   0  0  0  0  0  0  0  0  0  0  0  0
    0.1490   57.8309   72.1536 H   0  0  0  0  0  0  0  0  0  0  0  0
    0.6240   56.5663   73.3599 H   0  0  0  0  0  0  0  0  0  0  0  0
   -0.5620   58.4273   74.4369 H   0  0  0  0  0  0  0  0  0  0  0  0
    1.1670   58.3103   74.9818 H   0  0  0  0  0  0  0  0  0  0  0  0
   -0.2233   60.4333   73.4005 H   0  0  0  0  0  0  0  0  0  0  0  0
    1.1121   60.5225   74.6509 H   0  0  0  0  0  0  0  0  0  0  0  0
   -1.0243   64.4702   72.4407 H   0  0  0  0  0  0  0  0  0  0  0  0
    0.5358   64.9178   73.2136 H   0  0  0  0  0  0  0  0  0  0  0  0
    1.1076   67.9162   69.6111 H   0  0  0  0  0  0  0  0  0  0  0  0
    2.2016   66.6739   68.8886 H   0  0  0  0  0  0  0  0  0  0  0  0
    0.4788   65.8883   67.5510 H   0  0  0  0  0  0  0  0  0  0  0  0
   -2.9286   67.8059   67.5547 H   0  0  0  0  0  0  0  0  0  0  0  0
   -1.4535   67.9419   66.5387 H   0  0  0  0  0  0  0  0  0  0  0  0
   -2.4069   66.4195   66.5387 H   0  0  0  0  0  0  0  0  0  0  0  0
   -1.4176   67.3437   69.1994 H   0  0  0  0  0  0  0  0  0  0  0  0
   -1.4915   65.6844   68.4785 H   0  0  0  0  0  0  0  0  0  0  0  0
    1.2521   67.4864   66.1969 H   0  0  0  0  0  0  0  0  0  0  0  0
   -0.3597   68.2336   66.5101 H   0  0  0  0  0  0  0  0  0  0  0  0
    1.1849   68.9508   68.7404 H   0  0  0  0  0  0  0  0  0  0  0  0
    2.3108   69.1113   67.3499 H   0  0  0  0  0  0  0  0  0  0  0  0
    0.7507   70.0018   67.3499 H   0  0  0  0  0  0  0  0  0  0  0  0
    3.1812   61.6393   74.4985 H   0  0  0  0  0  0  0  0  0  0  0  0
  2  1  1  0
  3  2  2  0
  4  3  1  0
  5  4  2  0
  6  5  1  0
  7  6  2  0
  7  2  1  0
  8  1  1  0
  9  8  1  0
 10  9  1  0
 11 10  1  0
 12 11  1  0
 13 12  1  0
 13  8  1  0
 14  1  1  0
 15 14  2  0
 16 14  1  0
 17 16  1  0
 19 18  3  0
 19 17  1  0
 20 18  1  0
 21 20  1  0
 23 22  1  0
 23 21  1  0
 24 21  1  0
 25 24  1  0
  1 26  1  1
  3 27  1  0
  4 28  1  0
  5 29  1  0
  6 30  1  0
  7 31  1  0
  8 32  1  0
  9 33  1  0
  9 34  1  0
 10 35  1  0
 10 36  1  0
 11 37  1  0
 11 38  1  0
 12 39  1  0
 12 40  1  0
 13 41  1  0
 13 42  1  0
 17 43  1  0
 17 44  1  0
 20 45  1  0
 20 46  1  0
 21 47  1  0
 22 48  1  0
 22 49  1  0
 22 50  1  0
 23 51  1  0
 23 52  1  0
 24 53  1  0
 24 54  1  0
 25 55  1  0
 25 56  1  0
 25 57  1  0
 26 58  1  0
M  CHG  1  21   1
M  END
>  <score>  (7) 
-8.017

$$$$
=
     RDKit          3D

 58 59  0  0  0  0  0  0  0  0999 V2000
    1.0290   68.8900   67.6930 C   0  0  2  0  0  0  0  0  0  0  0  0
    2.4460   69.4830   67.8280 C   0  0  0  0  0  0  0  0  0  0  0  0
    3.4200   69.2840   66.8310 C   0  0  0  0  0  0  0  0  0  0  0  0
    4.6960   69.8440   66.9390 C   0  0  0  0  0  0  0  0  0  0  0  0
    5.0300   70.6080   68.0530 C   0  0  0  0  0  0  0  0  0  0  0  0
    4.0920   70.8090   69.0600 C   0  0  0  0  0  0  0  0  0  0  0  0
    2.8140   70.2520   68.9490 C   0  0  0  0  0  0  0  0  0  0  0  0
    0.6690   67.8620   68.8130 C   0  0  0  0  0  0  0  0  0  0  0  0
   -0.3750   66.8260   68.3550 C   0  0  0  0  0  0  0  0  0  0  0  0
   -0.8580   65.9500   69.5150 C   0  0  0  0  0  0  0  0  0  0  0  0
    0.1970   65.7370   70.6000 C   0  0  0  0  0  0  0  0  0  0  0  0
    1.6030   65.7760   70.0250 C   0  0  0  0  0  0  0  0  0  0  0  0
    1.9170   67.1180   69.3570 C   0  0  0  0  0  0  0  0  0  0  0  0
    0.8690   68.2560   66.2820 C   0  0  0  0  0  0  0  0  0  0  0  0
    1.0780   67.0660   66.0570 O   0  0  0  0  0  0  0  0  0  0  0  0
    0.4590   69.1590   65.3480 O   0  0  0  0  0  0  0  0  0  0  0  0
    0.1390   68.6070   64.0630 C   0  0  0  0  0  0  0  0  0  0  0  0
    2.2600   68.5170   62.4460 C   0  0  0  0  0  0  0  0  0  0  0  0
    1.3400   68.5980   63.2150 C   0  0  0  0  0  0  0  0  0  0  0  0
    3.3110   68.3520   61.4460 C   0  0  0  0  0  0  0  0  0  0  0  0
    4.6370   68.0170   62.1070 N   0  0  0  0  0  4  0  0  0  0  0  0
    5.5520   69.6210   63.8070 C   0  0  0  0  0  0  0  0  0  0  0  0
    5.5420   69.2150   62.3450 C   0  0  0  0  0  0  0  0  0  0  0  0
    4.4330   67.1980   63.3720 C   0  0  0  0  0  0  0  0  0  0  0  0
    4.3730   65.7170   63.0440 C   0  0  0  0  0  0  0  0  0  0  0  0
    0.0890   69.9830   67.7770 O   0  0  0  0  0  0  0  0  0  0  0  0
    3.1716   68.6753   65.9490 H   0  0  0  0  0  0  0  0  0  0  0  0
    5.4370   69.6806   66.1426 H   0  0  0  0  0  0  0  0  0  0  0  0
    6.0330   71.0517   68.1369 H   0  0  0  0  0  0  0  0  0  0  0  0
    4.3557   71.4069   69.9449 H   0  0  0  0  0  0  0  0  0  0  0  0
    2.0819   70.4178   69.7530 H   0  0  0  0  0  0  0  0  0  0  0  0
    0.2331   68.4651   69.6230 H   0  0  0  0  0  0  0  0  0  0  0  0
   -1.2382   67.3565   67.9267 H   0  0  0  0  0  0  0  0  0  0  0  0
    0.0990   66.1718   67.6084 H   0  0  0  0  0  0  0  0  0  0  0  0
   -1.7353   66.4309   69.9723 H   0  0  0  0  0  0  0  0  0  0  0  0
   -1.0947   64.9609   69.0960 H   0  0  0  0  0  0  0  0  0  0  0  0
    0.0977   66.5302   71.3557 H   0  0  0  0  0  0  0  0  0  0  0  0
    0.0351   64.7459   71.0489 H   0  0  0  0  0  0  0  0  0  0  0  0
    2.3236   65.6081   70.8390 H   0  0  0  0  0  0  0  0  0  0  0  0
    1.6763   64.9912   69.2578 H   0  0  0  0  0  0  0  0  0  0  0  0
    2.4098   67.7655   70.0973 H   0  0  0  0  0  0  0  0  0  0  0  0
    2.5583   66.8988   68.4906 H   0  0  0  0  0  0  0  0  0  0  0  0
   -0.2280   67.5776   64.1883 H   0  0  0  0  0  0  0  0  0  0  0  0
   -0.6393   69.2209   63.5862 H   0  0  0  0  0  0  0  0  0  0  0  0
    3.0330   67.5367   60.7618 H   0  0  0  0  0  0  0  0  0  0  0  0
    3.4218   69.2959   60.8921 H   0  0  0  0  0  0  0  0  0  0  0  0
    5.1451   67.4369   61.4242 H   0  0  0  0  0  0  0  0  0  0  0  0
    5.5298   68.7202   64.4379 H   0  0  0  0  0  0  0  0  0  0  0  0
    6.4646   70.1965   64.0215 H   0  0  0  0  0  0  0  0  0  0  0  0
    4.6688   70.2407   64.0215 H   0  0  0  0  0  0  0  0  0  0  0  0
    5.1817   70.0610   61.7413 H   0  0  0  0  0  0  0  0  0  0  0  0
    6.5664   68.9371   62.0564 H   0  0  0  0  0  0  0  0  0  0  0  0
    5.2703   67.3823   64.0612 H   0  0  0  0  0  0  0  0  0  0  0  0
    3.4833   67.4971   63.8396 H   0  0  0  0  0  0  0  0  0  0  0  0
    4.3494   65.1354   63.9774 H   0  0  0  0  0  0  0  0  0  0  0  0
    3.4656   65.5076   62.4585 H   0  0  0  0  0  0  0  0  0  0  0  0
    5.2605   65.4349   62.4585 H   0  0  0  0  0  0  0  0  0  0  0  0
   -0.0904   70.1916   68.7280 H   0  0  0  0  0  0  0  0  0  0  0  0
  2  1  1  0
  3  2  2  0
  4  3  1  0
  5  4  2  0
  6  5  1  0
  7  6  2  0
  7  2  1  0
  8  1  1  0
  9  8  1  0
 10  9  1  0
 11 10  1  0
 12 11  1  0
 13 12  1  0
 13  8  1  0
 14  1  1  0
 15 14  2  0
 16 14  1  0
 17 16  1  0
 19 18  3  0
 19 17  1  0
 20 18  1  0
 21 20  1  0
 23 22  1  0
 23 21  1  0
 24 21  1  0
 25 24  1  0
  1 26  1  6
  3 27  1  0
  4 28  1  0
  5 29  1  0
  6 30  1  0
  7 31  1  0
  8 32  1  0
  9 33  1  0
  9 34  1  0
 10 35  1  0
 10 36  1  0
 11 37  1  0
 11 38  1  0
 12 39  1  0
 12 40  1  0
 13 41  1  0
 13 42  1  0
 17 43  1  0
 17 44  1  0
 20 45  1  0
 20 46  1  0
 21 47  1  0
 22 48  1  0
 22 49  1  0
 22 50  1  0
 23 51  1  0
 23 52  1  0
 24 53  1  0
 24 54  1  0
 25 55  1  0
 25 56  1  0
 25 57  1  0
 26 58  1  0
M  CHG  1  21   1
M  END
>  <score>  (8) 
-7.767

$$$$
=
     RDKit          3D

 58 59  0  0  0  0  0  0  0  0999 V2000
    1.5520   62.6330   71.7820 C   0  0  2  0  0  0  0  0  0  0  0  0
    2.8570   61.9660   71.3010 C   0  0  0  0  0  0  0  0  0  0  0  0
    2.9230   61.2970   70.0640 C   0  0  0  0  0  0  0  0  0  0  0  0
    4.1110   60.7160   69.6140 C   0  0  0  0  0  0  0  0  0  0  0  0
    5.2600   60.7810   70.3980 C   0  0  0  0  0  0  0  0  0  0  0  0
    5.2190   61.4230   71.6310 C   0  0  0  0  0  0  0  0  0  0  0  0
    4.0300   62.0090   72.0780 C   0  0  0  0  0  0  0  0  0  0  0  0
    0.4860   61.6210   72.3100 C   0  0  0  0  0  0  0  0  0  0  0  0
    1.1070   60.4900   73.1510 C   0  0  0  0  0  0  0  0  0  0  0  0
    0.0810   59.4070   73.4980 C   0  0  0  0  0  0  0  0  0  0  0  0
   -1.3480   59.9360   73.6250 C   0  0  0  0  0  0  0  0  0  0  0  0
   -1.3660   61.3790   74.1000 C   0  0  0  0  0  0  0  0  0  0  0  0
   -0.6300   62.3140   73.1360 C   0  0  0  0  0  0  0  0  0  0  0  0
    0.9700   63.5090   70.6360 C   0  0  0  0  0  0  0  0  0  0  0  0
    0.0750   63.1210   69.8870 O   0  0  0  0  0  0  0  0  0  0  0  0
    1.5490   64.7410   70.5750 O   0  0  0  0  0  0  0  0  0  0  0  0
    0.6360   65.8480   70.6210 C   0  0  0  0  0  0  0  0  0  0  0  0
    1.1310   67.5940   68.6640 C   0  0  0  0  0  0  0  0  0  0  0  0
    0.9730   66.8100   69.5610 C   0  0  0  0  0  0  0  0  0  0  0  0
    1.2080   68.5390   67.5540 C   0  0  0  0  0  0  0  0  0  0  0  0
    0.2410   68.1510   66.4470 N   0  0  0  0  0  4  0  0  0  0  0  0
   -2.2110   67.9210   66.9320 C   0  0  0  0  0  0  0  0  0  0  0  0
   -1.1010   68.8640   66.5060 C   0  0  0  0  0  0  0  0  0  0  0  0
    0.8910   68.2750   65.0780 C   0  0  0  0  0  0  0  0  0  0  0  0
    2.3110   68.7990   65.2090 C   0  0  0  0  0  0  0  0  0  0  0  0
    1.8920   63.5250   72.8660 O   0  0  0  0  0  0  0  0  0  0  0  0
    2.0203   61.2304   69.4389 H   0  0  0  0  0  0  0  0  0  0  0  0
    4.1389   60.2067   68.6394 H   0  0  0  0  0  0  0  0  0  0  0  0
    6.1967   60.3262   70.0434 H   0  0  0  0  0  0  0  0  0  0  0  0
    6.1231   61.4701   72.2558 H   0  0  0  0  0  0  0  0  0  0  0  0
    4.0113   62.5131   73.0555 H   0  0  0  0  0  0  0  0  0  0  0  0
    0.0386   61.1813   71.4064 H   0  0  0  0  0  0  0  0  0  0  0  0
    1.9282   60.0321   72.5801 H   0  0  0  0  0  0  0  0  0  0  0  0
    1.4734   60.9265   74.0919 H   0  0  0  0  0  0  0  0  0  0  0  0
    0.1001   58.6434   72.7064 H   0  0  0  0  0  0  0  0  0  0  0  0
    0.3624   58.9987   74.4799 H   0  0  0  0  0  0  0  0  0  0  0  0
   -1.8400   59.8765   72.6430 H   0  0  0  0  0  0  0  0  0  0  0  0
   -1.8795   59.3214   74.3664 H   0  0  0  0  0  0  0  0  0  0  0  0
   -2.4113   61.7106   74.1865 H   0  0  0  0  0  0  0  0  0  0  0  0
   -0.8512   61.4215   75.0711 H   0  0  0  0  0  0  0  0  0  0  0  0
   -1.3655   62.7373   72.4362 H   0  0  0  0  0  0  0  0  0  0  0  0
   -0.1388   63.0819   73.7517 H   0  0  0  0  0  0  0  0  0  0  0  0
   -0.3905   65.4824   70.4707 H   0  0  0  0  0  0  0  0  0  0  0  0
    0.7110   66.3428   71.6006 H   0  0  0  0  0  0  0  0  0  0  0  0
    0.9539   69.5452   67.9187 H   0  0  0  0  0  0  0  0  0  0  0  0
    2.2309   68.5255   67.1496 H   0  0  0  0  0  0  0  0  0  0  0  0
    0.0179   67.1589   66.6112 H   0  0  0  0  0  0  0  0  0  0  0  0
   -2.2573   67.8816   68.0303 H   0  0  0  0  0  0  0  0  0  0  0  0
   -3.1716   68.2834   66.5372 H   0  0  0  0  0  0  0  0  0  0  0  0
   -2.0086   66.9144   66.5372 H   0  0  0  0  0  0  0  0  0  0  0  0
   -1.3363   69.2668   65.5098 H   0  0  0  0  0  0  0  0  0  0  0  0
   -1.0307   69.6732   67.2478 H   0  0  0  0  0  0  0  0  0  0  0  0
    0.9130   67.2861   64.5967 H   0  0  0  0  0  0  0  0  0  0  0  0
    0.3063   68.9801   64.4690 H   0  0  0  0  0  0  0  0  0  0  0  0
    2.5698   68.8945   66.2738 H   0  0  0  0  0  0  0  0  0  0  0  0
    3.0066   68.0983   64.7240 H   0  0  0  0  0  0  0  0  0  0  0  0
    2.3847   69.7836   64.7240 H   0  0  0  0  0  0  0  0  0  0  0  0
    1.7202   63.0742   73.7305 H   0  0  0  0  0  0  0  0  0  0  0  0
  2  1  1  0
  3  2  2  0
  4  3  1  0
  5  4  2  0
  6  5  1  0
  7  6  2  0
  7  2  1  0
  8  1  1  0
  9  8  1  0
 10  9  1  0
 11 10  1  0
 12 11  1  0
 13 12  1  0
 13  8  1  0
 14  1  1  0
 15 14  2  0
 16 14  1  0
 17 16  1  0
 19 18  3  0
 19 17  1  0
 20 18  1  0
 21 20  1  0
 23 22  1  0
 23 21  1  0
 24 21  1  0
 25 24  1  0
  1 26  1  1
  3 27  1  0
  4 28  1  0
  5 29  1  0
  6 30  1  0
  7 31  1  0
  8 32  1  0
  9 33  1  0
  9 34  1  0
 10 35  1  0
 10 36  1  0
 11 37  1  0
 11 38  1  0
 12 39  1  0
 12 40  1  0
 13 41  1  0
 13 42  1  0
 17 43  1  0
 17 44  1  0
 20 45  1  0
 20 46  1  0
 21 47  1  0
 22 48  1  0
 22 49  1  0
 22 50  1  0
 23 51  1  0
 23 52  1  0
 24 53  1  0
 24 54  1  0
 25 55  1  0
 25 56  1  0
 25 57  1  0
 26 58  1  0
M  CHG  1  21   1
M  END
>  <score>  (9) 
-7.651

$$$$
