=
     RDKit          3D

 46 49  0  0  0  0  0  0  0  0999 V2000
    0.8300   68.0310   63.9180 C   0  0  2  0  0  0  0  0  0  0  0  0
   -0.2760   67.9310   65.0020 C   0  0  0  0  0  0  0  0  0  0  0  0
    0.3210   68.5150   66.3000 C   0  0  0  0  0  0  0  0  0  0  0  0
    1.6800   69.0760   65.8860 C   0  0  2  0  0  0  0  0  0  0  0  0
    2.1370   68.1210   64.7620 C   0  0  1  0  0  0  0  0  0  0  0  0
    2.5220   66.6980   65.2680 C   0  0  0  0  0  0  0  0  0  0  0  0
    3.3750   68.7370   64.0840 C   0  0  0  0  0  0  0  0  0  0  0  0
    4.4960   69.0470   65.0950 C   0  0  0  0  0  0  0  0  0  0  0  0
    4.0200   69.8940   66.3040 C   0  0  1  0  0  0  0  0  0  0  0  0
    2.7500   69.2740   66.9620 C   0  0  1  0  0  0  0  0  0  0  0  0
    2.2800   70.1890   68.0940 C   0  0  0  0  0  0  0  0  0  0  0  0
    3.3290   70.2260   69.2010 C   0  0  0  0  0  0  0  0  0  0  0  0
    4.7430   70.3890   68.7010 C   0  0  0  0  0  0  0  0  0  0  0  0
    5.0940   70.1930   67.3480 C   0  0  0  0  0  0  0  0  0  0  0  0
    6.4420   70.3690   66.9780 C   0  0  0  0  0  0  0  0  0  0  0  0
    7.4210   70.6840   67.9220 C   0  0  0  0  0  0  0  0  0  0  0  0
    7.0610   70.8420   69.2520 C   0  0  0  0  0  0  0  0  0  0  0  0
    5.7390   70.6980   69.6450 C   0  0  0  0  0  0  0  0  0  0  0  0
    0.3800   70.1500   62.3390 C   0  0  0  0  0  0  0  0  0  0  0  0
    0.5880   69.2060   63.0520 C   0  0  0  0  0  0  0  0  0  0  0  0
    0.8150   66.8720   63.0960 O   0  0  0  0  0  0  0  0  0  0  0  0
    7.9830   71.1440   70.2090 O   0  0  0  0  0  0  0  0  0  0  0  0
   -1.1595   68.5108   64.6967 H   0  0  0  0  0  0  0  0  0  0  0  0
   -0.5945   66.8882   65.1472 H   0  0  0  0  0  0  0  0  0  0  0  0
   -0.3229   69.3132   66.6979 H   0  0  0  0  0  0  0  0  0  0  0  0
    0.4082   67.7588   67.0941 H   0  0  0  0  0  0  0  0  0  0  0  0
    1.5508   70.1258   65.5841 H   0  0  0  0  0  0  0  0  0  0  0  0
    2.5246   66.6882   66.3680 H   0  0  0  0  0  0  0  0  0  0  0  0
    1.7896   65.9662   64.8966 H   0  0  0  0  0  0  0  0  0  0  0  0
    3.5235   66.4353   64.8966 H   0  0  0  0  0  0  0  0  0  0  0  0
    3.7587   68.0284   63.3353 H   0  0  0  0  0  0  0  0  0  0  0  0
    3.0688   69.6846   63.6168 H   0  0  0  0  0  0  0  0  0  0  0  0
    4.8974   68.0951   65.4729 H   0  0  0  0  0  0  0  0  0  0  0  0
    5.2567   69.6384   64.5643 H   0  0  0  0  0  0  0  0  0  0  0  0
    3.7638   70.8746   65.8765 H   0  0  0  0  0  0  0  0  0  0  0  0
    2.9681   68.2888   67.3999 H   0  0  0  0  0  0  0  0  0  0  0  0
    2.1274   71.2054   67.7020 H   0  0  0  0  0  0  0  0  0  0  0  0
    1.3349   69.8026   68.5033 H   0  0  0  0  0  0  0  0  0  0  0  0
    3.0985   71.0698   69.8679 H   0  0  0  0  0  0  0  0  0  0  0  0
    3.2833   69.2548   69.7155 H   0  0  0  0  0  0  0  0  0  0  0  0
    6.7293   70.2557   65.9222 H   0  0  0  0  0  0  0  0  0  0  0  0
    8.4698   70.8059   67.6134 H   0  0  0  0  0  0  0  0  0  0  0  0
    5.4671   70.8264   70.7031 H   0  0  0  0  0  0  0  0  0  0  0  0
    0.1895   71.0145   61.6860 H   0  0  0  0  0  0  0  0  0  0  0  0
    0.8045   66.0630   63.6665 H   0  0  0  0  0  0  0  0  0  0  0  0
    7.7008   71.2517   71.1518 H   0  0  0  0  0  0  0  0  0  0  0  0
  2  1  1  0
  3  2  1  0
  4  3  1  0
  5  1  1  0
  5  4  1  0
  5  6  1  1
  7  5  1  0
  8  7  1  0
  9  8  1  0
 10  9  1  0
 10  4  1  0
 11 10  1  0
 12 11  1  0
 13 12  1  0
 14 13  2  0
 14  9  1  0
 15 14  1  0
 16 15  2  0
 17 16  1  0
 18 13  1  0
 18 17  2  0
 20 19  3  0
  1 20  1  6
 21  1  1  0
 22 17  1  0
  2 23  1  0
  2 24  1  0
  3 25  1  0
  3 26  1  0
  4 27  1  6
  6 28  1  0
  6 29  1  0
  6 30  1  0
  7 31  1  0
  7 32  1  0
  8 33  1  0
  8 34  1  0
  9 35  1  6
 10 36  1  1
 11 37  1  0
 11 38  1  0
 12 39  1  0
 12 40  1  0
 15 41  1  0
 16 42  1  0
 18 43  1  0
 19 44  1  0
 21 45  1  0
 22 46  1  0
M  END
>  <score>  (1) 
-9.72

$$$$
=
     RDKit          3D

 46 49  0  0  0  0  0  0  0  0999 V2000
    4.2260   61.9760   70.8200 C   0  0  2  0  0  0  0  0  0  0  0  0
    5.0610   60.7010   71.1170 C   0  0  0  0  0  0  0  0  0  0  0  0
    4.1130   59.7030   71.8140 C   0  0  0  0  0  0  0  0  0  0  0  0
    2.7370   60.3620   71.7510 C   0  0  2  0  0  0  0  0  0  0  0  0
    3.0560   61.8710   71.8430 C   0  0  1  0  0  0  0  0  0  0  0  0
    3.5580   62.3200   73.2480 C   0  0  0  0  0  0  0  0  0  0  0  0
    1.7680   62.6530   71.5260 C   0  0  0  0  0  0  0  0  0  0  0  0
    0.5960   62.2350   72.4360 C   0  0  0  0  0  0  0  0  0  0  0  0
    0.3490   60.7040   72.4590 C   0  0  1  0  0  0  0  0  0  0  0  0
    1.6670   59.9250   72.7540 C   0  0  1  0  0  0  0  0  0  0  0  0
    1.3820   58.4240   72.6870 C   0  0  0  0  0  0  0  0  0  0  0  0
    0.4220   58.0270   73.8050 C   0  0  0  0  0  0  0  0  0  0  0  0
   -0.7500   58.9630   73.9680 C   0  0  0  0  0  0  0  0  0  0  0  0
   -0.7820   60.2450   73.3780 C   0  0  0  0  0  0  0  0  0  0  0  0
   -1.9210   61.0460   73.5880 C   0  0  0  0  0  0  0  0  0  0  0  0
   -2.9770   60.6130   74.3940 C   0  0  0  0  0  0  0  0  0  0  0  0
   -2.9130   59.3640   74.9890 C   0  0  0  0  0  0  0  0  0  0  0  0
   -1.8140   58.5410   74.7840 C   0  0  0  0  0  0  0  0  0  0  0  0
    3.4440   62.0040   68.2560 C   0  0  0  0  0  0  0  0  0  0  0  0
    3.7930   61.9820   69.4050 C   0  0  0  0  0  0  0  0  0  0  0  0
    5.0140   63.1380   71.0410 O   0  0  0  0  0  0  0  0  0  0  0  0
   -3.9170   58.9010   75.7870 O   0  0  0  0  0  0  0  0  0  0  0  0
    5.4420   60.2703   70.1793 H   0  0  0  0  0  0  0  0  0  0  0  0
    5.9273   60.9345   71.7534 H   0  0  0  0  0  0  0  0  0  0  0  0
    4.1059   58.7398   71.2827 H   0  0  0  0  0  0  0  0  0  0  0  0
    4.4233   59.4883   72.8472 H   0  0  0  0  0  0  0  0  0  0  0  0
    2.2366   60.0440   70.8244 H   0  0  0  0  0  0  0  0  0  0  0  0
    2.9791   61.8022   74.0269 H   0  0  0  0  0  0  0  0  0  0  0  0
    4.6234   62.0680   73.3545 H   0  0  0  0  0  0  0  0  0  0  0  0
    3.4259   63.4068   73.3545 H   0  0  0  0  0  0  0  0  0  0  0  0
    1.9612   63.7266   71.6674 H   0  0  0  0  0  0  0  0  0  0  0  0
    1.4849   62.4315   70.4864 H   0  0  0  0  0  0  0  0  0  0  0  0
    0.8147   62.5682   73.4612 H   0  0  0  0  0  0  0  0  0  0  0  0
   -0.3127   62.7042   72.0309 H   0  0  0  0  0  0  0  0  0  0  0  0
    0.0031   60.4592   71.4439 H   0  0  0  0  0  0  0  0  0  0  0  0
    2.0445   60.1479   73.7628 H   0  0  0  0  0  0  0  0  0  0  0  0
    0.9291   58.1818   71.7143 H   0  0  0  0  0  0  0  0  0  0  0  0
    2.3252   57.8707   72.8062 H   0  0  0  0  0  0  0  0  0  0  0  0
    0.0338   57.0212   73.5868 H   0  0  0  0  0  0  0  0  0  0  0  0
    0.9934   58.0656   74.7441 H   0  0  0  0  0  0  0  0  0  0  0  0
   -1.9806   62.0336   73.1073 H   0  0  0  0  0  0  0  0  0  0  0  0
   -3.8525   61.2592   74.5547 H   0  0  0  0  0  0  0  0  0  0  0  0
   -1.7755   57.5517   75.2634 H   0  0  0  0  0  0  0  0  0  0  0  0
    3.1244   62.0241   67.2037 H   0  0  0  0  0  0  0  0  0  0  0  0
    5.1155   63.2877   72.0143 H   0  0  0  0  0  0  0  0  0  0  0  0
   -3.8470   58.0043   76.2006 H   0  0  0  0  0  0  0  0  0  0  0  0
  2  1  1  0
  3  2  1  0
  4  3  1  0
  5  1  1  0
  5  4  1  0
  5  6  1  1
  7  5  1  0
  8  7  1  0
  9  8  1  0
 10  9  1  0
 10  4  1  0
 11 10  1  0
 12 11  1  0
 13 12  1  0
 14 13  2  0
 14  9  1  0
 15 14  1  0
 16 15  2  0
 17 16  1  0
 18 13  1  0
 18 17  2  0
 20 19  3  0
  1 20  1  6
 21  1  1  0
 22 17  1  0
  2 23  1  0
  2 24  1  0
  3 25  1  0
  3 26  1  0
  4 27  1  6
  6 28  1  0
  6 29  1  0
  6 30  1  0
  7 31  1  0
  7 32  1  0
  8 33  1  0
  8 34  1  0
  9 35  1  6
 10 36  1  1
 11 37  1  0
 11 38  1  0
 12 39  1  0
 12 40  1  0
 15 41  1  0
 16 42  1  0
 18 43  1  0
 19 44  1  0
 21 45  1  0
 22 46  1  0
M  END
>  <score>  (2) 
-8.062

$$$$
=
     RDKit          3D

 46 49  0  0  0  0  0  0  0  0999 V2000
    4.9230   67.9680   63.9140 C   0  0  2  0  0  0  0  0  0  0  0  0
    4.7340   68.2030   62.3910 C   0  0  0  0  0  0  0  0  0  0  0  0
    3.2480   68.5610   62.1790 C   0  0  0  0  0  0  0  0  0  0  0  0
    2.6700   68.6780   63.5880 C   0  0  2  0  0  0  0  0  0  0  0  0
    3.4780   67.6400   64.3970 C   0  0  1  0  0  0  0  0  0  0  0  0
    3.1370   66.1630   64.0370 C   0  0  0  0  0  0  0  0  0  0  0  0
    3.1690   67.8500   65.8900 C   0  0  0  0  0  0  0  0  0  0  0  0
    1.6570   67.7880   66.1840 C   0  0  0  0  0  0  0  0  0  0  0  0
    0.8150   68.7290   65.2830 C   0  0  1  0  0  0  0  0  0  0  0  0
    1.1590   68.5250   63.7760 C   0  0  1  0  0  0  0  0  0  0  0  0
    0.3600   69.5290   62.9440 C   0  0  0  0  0  0  0  0  0  0  0  0
   -1.1310   69.2290   63.0580 C   0  0  0  0  0  0  0  0  0  0  0  0
   -1.5940   68.9520   64.4680 C   0  0  0  0  0  0  0  0  0  0  0  0
   -0.6940   68.6700   65.5180 C   0  0  0  0  0  0  0  0  0  0  0  0
   -1.2230   68.4250   66.8000 C   0  0  0  0  0  0  0  0  0  0  0  0
   -2.6010   68.4120   67.0290 C   0  0  0  0  0  0  0  0  0  0  0  0
   -3.4690   68.6600   65.9780 C   0  0  0  0  0  0  0  0  0  0  0  0
   -2.9790   68.9280   64.7070 C   0  0  0  0  0  0  0  0  0  0  0  0
    5.9850   70.1400   65.0710 C   0  0  0  0  0  0  0  0  0  0  0  0
    5.5140   69.1690   64.5440 C   0  0  0  0  0  0  0  0  0  0  0  0
    5.8090   66.8780   64.1330 O   0  0  0  0  0  0  0  0  0  0  0  0
   -4.8210   68.6530   66.1520 O   0  0  0  0  0  0  0  0  0  0  0  0
    5.3753   69.0301   62.0525 H   0  0  0  0  0  0  0  0  0  0  0  0
    5.0116   67.3080   61.8149 H   0  0  0  0  0  0  0  0  0  0  0  0
    3.1524   69.5154   61.6404 H   0  0  0  0  0  0  0  0  0  0  0  0
    2.7213   67.8072   61.5754 H   0  0  0  0  0  0  0  0  0  0  0  0
    2.7752   69.7194   63.9263 H   0  0  0  0  0  0  0  0  0  0  0  0
    3.0028   65.5819   64.9613 H   0  0  0  0  0  0  0  0  0  0  0  0
    2.2086   66.1342   63.4478 H   0  0  0  0  0  0  0  0  0  0  0  0
    3.9588   65.7301   63.4478 H   0  0  0  0  0  0  0  0  0  0  0  0
    3.6757   67.0652   66.4708 H   0  0  0  0  0  0  0  0  0  0  0  0
    3.5281   68.8506   66.1726 H   0  0  0  0  0  0  0  0  0  0  0  0
    1.3133   66.7550   66.0266 H   0  0  0  0  0  0  0  0  0  0  0  0
    1.5144   68.1200   67.2230 H   0  0  0  0  0  0  0  0  0  0  0  0
    1.1081   69.7448   65.5866 H   0  0  0  0  0  0  0  0  0  0  0  0
    0.8814   67.5166   63.4355 H   0  0  0  0  0  0  0  0  0  0  0  0
    0.5564   70.5464   63.3131 H   0  0  0  0  0  0  0  0  0  0  0  0
    0.6654   69.4498   61.8902 H   0  0  0  0  0  0  0  0  0  0  0  0
   -1.6889   70.0960   62.6745 H   0  0  0  0  0  0  0  0  0  0  0  0
   -1.3178   68.3147   62.4756 H   0  0  0  0  0  0  0  0  0  0  0  0
   -0.5363   68.2399   67.6391 H   0  0  0  0  0  0  0  0  0  0  0  0
   -2.9938   68.2065   68.0357 H   0  0  0  0  0  0  0  0  0  0  0  0
   -3.6793   69.1229   63.8814 H   0  0  0  0  0  0  0  0  0  0  0  0
    6.4164   71.0293   65.5537 H   0  0  0  0  0  0  0  0  0  0  0  0
    5.9240   66.7366   65.1061 H   0  0  0  0  0  0  0  0  0  0  0  0
   -5.4198   68.8333   65.3845 H   0  0  0  0  0  0  0  0  0  0  0  0
  2  1  1  0
  3  2  1  0
  4  3  1  0
  5  1  1  0
  5  4  1  0
  5  6  1  6
  7  5  1  0
  8  7  1  0
  9  8  1  0
 10  9  1  0
 10  4  1  0
 11 10  1  0
 12 11  1  0
 13 12  1  0
 14 13  2  0
 14  9  1  0
 15 14  1  0
 16 15  2  0
 17 16  1  0
 18 13  1  0
 18 17  2  0
 20 19  3  0
  1 20  1  1
 21  1  1  0
 22 17  1  0
  2 23  1  0
  2 24  1  0
  3 25  1  0
  3 26  1  0
  4 27  1  1
  6 28  1  0
  6 29  1  0
  6 30  1  0
  7 31  1  0
  7 32  1  0
  8 33  1  0
  8 34  1  0
  9 35  1  1
 10 36  1  6
 11 37  1  0
 11 38  1  0
 12 39  1  0
 12 40  1  0
 15 41  1  0
 16 42  1  0
 18 43  1  0
 19 44  1  0
 21 45  1  0
 22 46  1  0
M  END
>  <score>  (3) 
-7.683

$$$$
=
     RDKit          3D

 46 49  0  0  0  0  0  0  0  0999 V2000
    3.6110   61.2710   71.5000 C   0  0  2  0  0  0  0  0  0  0  0  0
    4.5320   60.0260   71.3880 C   0  0  0  0  0  0  0  0  0  0  0  0
    3.7230   58.8260   71.9240 C   0  0  0  0  0  0  0  0  0  0  0  0
    2.3210   59.3810   72.1730 C   0  0  2  0  0  0  0  0  0  0  0  0
    2.5820   60.8450   72.5900 C   0  0  1  0  0  0  0  0  0  0  0  0
    3.2340   60.9880   73.9980 C   0  0  0  0  0  0  0  0  0  0  0  0
    1.2320   61.5840   72.6130 C   0  0  0  0  0  0  0  0  0  0  0  0
    0.2010   60.8810   73.5170 C   0  0  0  0  0  0  0  0  0  0  0  0
    0.0270   59.3730   73.1990 C   0  0  1  0  0  0  0  0  0  0  0  0
    1.4040   58.6440   73.1510 C   0  0  1  0  0  0  0  0  0  0  0  0
    1.1790   57.1840   72.7570 C   0  0  0  0  0  0  0  0  0  0  0  0
    0.3840   56.4680   73.8440 C   0  0  0  0  0  0  0  0  0  0  0  0
   -0.8000   57.2530   74.3550 C   0  0  0  0  0  0  0  0  0  0  0  0
   -0.9610   58.6320   74.0980 C   0  0  0  0  0  0  0  0  0  0  0  0
   -2.1000   59.2770   74.6170 C   0  0  0  0  0  0  0  0  0  0  0  0
   -3.0280   58.5920   75.4060 C   0  0  0  0  0  0  0  0  0  0  0  0
   -2.8360   57.2460   75.6730 C   0  0  0  0  0  0  0  0  0  0  0  0
   -1.7360   56.5760   75.1570 C   0  0  0  0  0  0  0  0  0  0  0  0
    2.5230   61.8410   69.1170 C   0  0  0  0  0  0  0  0  0  0  0  0
    3.0080   61.5760   70.1840 C   0  0  0  0  0  0  0  0  0  0  0  0
    4.3680   62.4030   71.9070 O   0  0  0  0  0  0  0  0  0  0  0  0
   -3.7120   56.5390   76.4400 O   0  0  0  0  0  0  0  0  0  0  0  0
    4.8127   59.8554   70.3382 H   0  0  0  0  0  0  0  0  0  0  0  0
    5.4590   60.1667   71.9632 H   0  0  0  0  0  0  0  0  0  0  0  0
    3.6927   58.0159   71.1805 H   0  0  0  0  0  0  0  0  0  0  0  0
    4.1682   58.3982   72.8344 H   0  0  0  0  0  0  0  0  0  0  0  0
    1.7239   59.2547   71.2579 H   0  0  0  0  0  0  0  0  0  0  0  0
    2.4721   60.8209   74.7736 H   0  0  0  0  0  0  0  0  0  0  0  0
    4.0375   60.2447   74.1072 H   0  0  0  0  0  0  0  0  0  0  0  0
    3.6527   61.9993   74.1072 H   0  0  0  0  0  0  0  0  0  0  0  0
    1.3934   62.6057   72.9872 H   0  0  0  0  0  0  0  0  0  0  0  0
    0.8332   61.5924   71.5879 H   0  0  0  0  0  0  0  0  0  0  0  0
    0.5287   60.9810   74.5623 H   0  0  0  0  0  0  0  0  0  0  0  0
   -0.7706   61.3642   73.3368 H   0  0  0  0  0  0  0  0  0  0  0  0
   -0.4303   59.3474   72.1989 H   0  0  0  0  0  0  0  0  0  0  0  0
    1.8942   58.6503   74.1357 H   0  0  0  0  0  0  0  0  0  0  0  0
    0.6201   57.1439   71.8104 H   0  0  0  0  0  0  0  0  0  0  0  0
    2.1533   56.6880   72.6356 H   0  0  0  0  0  0  0  0  0  0  0  0
    0.0169   55.5156   73.4339 H   0  0  0  0  0  0  0  0  0  0  0  0
    1.0649   56.3270   74.6964 H   0  0  0  0  0  0  0  0  0  0  0  0
   -2.2627   60.3424   74.3968 H   0  0  0  0  0  0  0  0  0  0  0  0
   -3.9047   59.1177   75.8122 H   0  0  0  0  0  0  0  0  0  0  0  0
   -1.5950   55.5075   75.3769 H   0  0  0  0  0  0  0  0  0  0  0  0
    2.0790   62.0836   68.1403 H   0  0  0  0  0  0  0  0  0  0  0  0
    4.3952   62.4436   72.8958 H   0  0  0  0  0  0  0  0  0  0  0  0
   -3.5520   55.5780   76.6160 H   0  0  0  0  0  0  0  0  0  0  0  0
  2  1  1  0
  3  2  1  0
  4  3  1  0
  5  1  1  0
  5  4  1  0
  5  6  1  1
  7  5  1  0
  8  7  1  0
  9  8  1  0
 10  9  1  0
 10  4  1  0
 11 10  1  0
 12 11  1  0
 13 12  1  0
 14 13  2  0
 14  9  1  0
 15 14  1  0
 16 15  2  0
 17 16  1  0
 18 13  1  0
 18 17  2  0
 20 19  3  0
  1 20  1  6
 21  1  1  0
 22 17  1  0
  2 23  1  0
  2 24  1  0
  3 25  1  0
  3 26  1  0
  4 27  1  6
  6 28  1  0
  6 29  1  0
  6 30  1  0
  7 31  1  0
  7 32  1  0
  8 33  1  0
  8 34  1  0
  9 35  1  6
 10 36  1  1
 11 37  1  0
 11 38  1  0
 12 39  1  0
 12 40  1  0
 15 41  1  0
 16 42  1  0
 18 43  1  0
 19 44  1  0
 21 45  1  0
 22 46  1  0
M  END
>  <score>  (4) 
-7.604

$$$$
=
     RDKit          3D

 46 49  0  0  0  0  0  0  0  0999 V2000
    3.6820   62.2110   70.6990 C   0  0  2  0  0  0  0  0  0  0  0  0
    3.7880   61.2770   69.4640 C   0  0  0  0  0  0  0  0  0  0  0  0
    3.3960   59.8630   69.9410 C   0  0  0  0  0  0  0  0  0  0  0  0
    2.9250   60.0540   71.3810 C   0  0  2  0  0  0  0  0  0  0  0  0
    3.8000   61.2190   71.8950 C   0  0  1  0  0  0  0  0  0  0  0  0
    5.2960   60.8340   72.1000 C   0  0  0  0  0  0  0  0  0  0  0  0
    3.2360   61.6790   73.2520 C   0  0  0  0  0  0  0  0  0  0  0  0
    3.1350   60.5190   74.2620 C   0  0  0  0  0  0  0  0  0  0  0  0
    2.3730   59.2850   73.7100 C   0  0  1  0  0  0  0  0  0  0  0  0
    2.9360   58.8490   72.3240 C   0  0  1  0  0  0  0  0  0  0  0  0
    2.1000   57.6830   71.7930 C   0  0  0  0  0  0  0  0  0  0  0  0
    2.2720   56.4660   72.6980 C   0  0  0  0  0  0  0  0  0  0  0  0
    2.1920   56.7820   74.1710 C   0  0  0  0  0  0  0  0  0  0  0  0
    2.2820   58.1000   74.6690 C   0  0  0  0  0  0  0  0  0  0  0  0
    2.1950   58.2920   76.0610 C   0  0  0  0  0  0  0  0  0  0  0  0
    2.0700   57.2130   76.9390 C   0  0  0  0  0  0  0  0  0  0  0  0
    2.0140   55.9240   76.4330 C   0  0  0  0  0  0  0  0  0  0  0  0
    2.0740   55.7020   75.0640 C   0  0  0  0  0  0  0  0  0  0  0  0
    1.3710   63.5670   70.6450 C   0  0  0  0  0  0  0  0  0  0  0  0
    2.4090   62.9620   70.6600 C   0  0  0  0  0  0  0  0  0  0  0  0
    4.7460   63.1520   70.6920 O   0  0  0  0  0  0  0  0  0  0  0  0
    1.8960   54.8410   77.2510 O   0  0  0  0  0  0  0  0  0  0  0  0
    3.1011   61.6143   68.6738 H   0  0  0  0  0  0  0  0  0  0  0  0
    4.8064   61.2856   69.0483 H   0  0  0  0  0  0  0  0  0  0  0  0
    2.5856   59.4550   69.3191 H   0  0  0  0  0  0  0  0  0  0  0  0
    4.2333   59.1533   69.8686 H   0  0  0  0  0  0  0  0  0  0  0  0
    1.8424   60.2486   71.3737 H   0  0  0  0  0  0  0  0  0  0  0  0
    5.5159   60.7774   73.1763 H   0  0  0  0  0  0  0  0  0  0  0  0
    5.4902   59.8566   71.6342 H   0  0  0  0  0  0  0  0  0  0  0  0
    5.9379   61.5962   71.6342 H   0  0  0  0  0  0  0  0  0  0  0  0
    3.8977   62.4537   73.6668 H   0  0  0  0  0  0  0  0  0  0  0  0
    2.2216   62.0692   73.0822 H   0  0  0  0  0  0  0  0  0  0  0  0
    4.1532   60.2059   74.5362 H   0  0  0  0  0  0  0  0  0  0  0  0
    2.5668   60.8908   75.1274 H   0  0  0  0  0  0  0  0  0  0  0  0
    1.3346   59.6263   73.5866 H   0  0  0  0  0  0  0  0  0  0  0  0
    3.9765   58.5020   72.4080 H   0  0  0  0  0  0  0  0  0  0  0  0
    1.0396   57.9746   71.7715 H   0  0  0  0  0  0  0  0  0  0  0  0
    2.4365   57.4292   70.7770 H   0  0  0  0  0  0  0  0  0  0  0  0
    1.4814   55.7404   72.4562 H   0  0  0  0  0  0  0  0  0  0  0  0
    3.2811   56.0699   72.5113 H   0  0  0  0  0  0  0  0  0  0  0  0
    2.2262   59.3143   76.4660 H   0  0  0  0  0  0  0  0  0  0  0  0
    2.0164   57.3850   78.0241 H   0  0  0  0  0  0  0  0  0  0  0  0
    2.0289   54.6741   74.6749 H   0  0  0  0  0  0  0  0  0  0  0  0
    0.4207   64.1209   70.6313 H   0  0  0  0  0  0  0  0  0  0  0  0
    4.9966   63.3737   71.6237 H   0  0  0  0  0  0  0  0  0  0  0  0
    1.8581   53.9304   76.8643 H   0  0  0  0  0  0  0  0  0  0  0  0
  2  1  1  0
  3  2  1  0
  4  3  1  0
  5  1  1  0
  5  4  1  0
  5  6  1  1
  7  5  1  0
  8  7  1  0
  9  8  1  0
 10  9  1  0
 10  4  1  0
 11 10  1  0
 12 11  1  0
 13 12  1  0
 14 13  2  0
 14  9  1  0
 15 14  1  0
 16 15  2  0
 17 16  1  0
 18 13  1  0
 18 17  2  0
 20 19  3  0
  1 20  1  1
 21  1  1  0
 22 17  1  0
  2 23  1  0
  2 24  1  0
  3 25  1  0
  3 26  1  0
  4 27  1  6
  6 28  1  0
  6 29  1  0
  6 30  1  0
  7 31  1  0
  7 32  1  0
  8 33  1  0
  8 34  1  0
  9 35  1  6
 10 36  1  1
 11 37  1  0
 11 38  1  0
 12 39  1  0
 12 40  1  0
 15 41  1  0
 16 42  1  0
 18 43  1  0
 19 44  1  0
 21 45  1  0
 22 46  1  0
M  END
>  <score>  (5) 
-7.547

$$$$
=
     RDKit          3D

 46 49  0  0  0  0  0  0  0  0999 V2000
    3.4720   67.6540   62.2850 C   0  0  2  0  0  0  0  0  0  0  0  0
    2.0230   67.4390   62.8000 C   0  0  0  0  0  0  0  0  0  0  0  0
    1.9690   68.0180   64.2290 C   0  0  0  0  0  0  0  0  0  0  0  0
    3.3270   68.6870   64.4300 C   0  0  2  0  0  0  0  0  0  0  0  0
    4.2890   67.8050   63.6040 C   0  0  1  0  0  0  0  0  0  0  0  0
    4.5340   66.3960   64.2220 C   0  0  0  0  0  0  0  0  0  0  0  0
    5.6450   68.5290   63.5140 C   0  0  0  0  0  0  0  0  0  0  0  0
    6.2070   68.8820   64.9050 C   0  0  0  0  0  0  0  0  0  0  0  0
    5.2010   69.6520   65.8000 C   0  0  1  0  0  0  0  0  0  0  0  0
    3.8250   68.9220   65.8580 C   0  0  1  0  0  0  0  0  0  0  0  0
    2.8520   69.7630   66.6860 C   0  0  0  0  0  0  0  0  0  0  0  0
    3.3290   69.8350   68.1330 C   0  0  0  0  0  0  0  0  0  0  0  0
    4.8050   70.1140   68.2790 C   0  0  0  0  0  0  0  0  0  0  0  0
    5.7080   69.9890   67.2010 C   0  0  0  0  0  0  0  0  0  0  0  0
    7.0680   70.2720   67.4360 C   0  0  0  0  0  0  0  0  0  0  0  0
    7.5300   70.6210   68.7070 C   0  0  0  0  0  0  0  0  0  0  0  0
    6.6310   70.7080   69.7590 C   0  0  0  0  0  0  0  0  0  0  0  0
    5.2820   70.4580   69.5560 C   0  0  0  0  0  0  0  0  0  0  0  0
    3.5790   69.7890   60.6690 C   0  0  0  0  0  0  0  0  0  0  0  0
    3.5270   68.8370   61.4000 C   0  0  0  0  0  0  0  0  0  0  0  0
    3.8950   66.5250   61.5330 O   0  0  0  0  0  0  0  0  0  0  0  0
    7.0370   71.0420   71.0170 O   0  0  0  0  0  0  0  0  0  0  0  0
    1.3080   67.9653   62.1506 H   0  0  0  0  0  0  0  0  0  0  0  0
    1.7561   66.3719   62.7955 H   0  0  0  0  0  0  0  0  0  0  0  0
    1.1570   68.7547   64.3182 H   0  0  0  0  0  0  0  0  0  0  0  0
    1.7720   67.2428   64.9841 H   0  0  0  0  0  0  0  0  0  0  0  0
    3.2548   69.7349   64.1034 H   0  0  0  0  0  0  0  0  0  0  0  0
    4.5212   66.4697   65.3195 H   0  0  0  0  0  0  0  0  0  0  0  0
    3.7420   65.7079   63.8914 H   0  0  0  0  0  0  0  0  0  0  0  0
    5.5118   66.0156   63.8914 H   0  0  0  0  0  0  0  0  0  0  0  0
    6.3627   67.8750   62.9970 H   0  0  0  0  0  0  0  0  0  0  0  0
    5.4917   69.4682   62.9622 H   0  0  0  0  0  0  0  0  0  0  0  0
    6.4842   67.9482   65.4161 H   0  0  0  0  0  0  0  0  0  0  0  0
    7.0720   69.5428   64.7470 H   0  0  0  0  0  0  0  0  0  0  0  0
    5.0731   70.6264   65.3059 H   0  0  0  0  0  0  0  0  0  0  0  0
    3.9144   67.9399   66.3452 H   0  0  0  0  0  0  0  0  0  0  0  0
    2.8011   70.7791   66.2678 H   0  0  0  0  0  0  0  0  0  0  0  0
    1.8555   69.2981   66.6560 H   0  0  0  0  0  0  0  0  0  0  0  0
    2.7734   70.6370   68.6410 H   0  0  0  0  0  0  0  0  0  0  0  0
    3.1463   68.8459   68.5782 H   0  0  0  0  0  0  0  0  0  0  0  0
    7.7813   70.2169   66.6005 H   0  0  0  0  0  0  0  0  0  0  0  0
    8.5982   70.8252   68.8721 H   0  0  0  0  0  0  0  0  0  0  0  0
    4.5803   70.5294   70.4001 H   0  0  0  0  0  0  0  0  0  0  0  0
    3.6266   70.6606   59.9997 H   0  0  0  0  0  0  0  0  0  0  0  0
    4.1665   65.8002   62.1503 H   0  0  0  0  0  0  0  0  0  0  0  0
    6.3761   71.0977   71.7520 H   0  0  0  0  0  0  0  0  0  0  0  0
  2  1  1  0
  3  2  1  0
  4  3  1  0
  5  1  1  0
  5  4  1  0
  5  6  1  1
  7  5  1  0
  8  7  1  0
  9  8  1  0
 10  9  1  0
 10  4  1  0
 11 10  1  0
 12 11  1  0
 13 12  1  0
 14 13  2  0
 14  9  1  0
 15 14  1  0
 16 15  2  0
 17 16  1  0
 18 13  1  0
 18 17  2  0
 20 19  3  0
  1 20  1  6
 21  1  1  0
 22 17  1  0
  2 23  1  0
  2 24  1  0
  3 25  1  0
  3 26  1  0
  4 27  1  6
  6 28  1  0
  6 29  1  0
  6 30  1  0
  7 31  1  0
  7 32  1  0
  8 33  1  0
  8 34  1  0
  9 35  1  6
 10 36  1  1
 11 37  1  0
 11 38  1  0
 12 39  1  0
 12 40  1  0
 15 41  1  0
 16 42  1  0
 18 43  1  0
 19 44  1  0
 21 45  1  0
 22 46  1  0
M  END
>  <score>  (6) 
-7.538

$$$$
=
     RDKit          3D

 46 49  0  0  0  0  0  0  0  0999 V2000
    4.0020   60.3610   70.9630 C   0  0  2  0  0  0  0  0  0  0  0  0
    3.5860   58.8660   70.9450 C   0  0  0  0  0  0  0  0  0  0  0  0
    2.3200   58.7470   71.8190 C   0  0  0  0  0  0  0  0  0  0  0  0
    1.9560   60.1870   72.1770 C   0  0  2  0  0  0  0  0  0  0  0  0
    3.3270   60.8940   72.2630 C   0  0  1  0  0  0  0  0  0  0  0  0
    4.1760   60.4660   73.4970 C   0  0  0  0  0  0  0  0  0  0  0  0
    3.0790   62.4110   72.3580 C   0  0  0  0  0  0  0  0  0  0  0  0
    2.1470   62.7730   73.5310 C   0  0  0  0  0  0  0  0  0  0  0  0
    0.8190   61.9700   73.5350 C   0  0  1  0  0  0  0  0  0  0  0  0
    1.0860   60.4400   73.4100 C   0  0  1  0  0  0  0  0  0  0  0  0
   -0.2550   59.7070   73.3390 C   0  0  0  0  0  0  0  0  0  0  0  0
   -1.0090   59.8760   74.6550 C   0  0  0  0  0  0  0  0  0  0  0  0
   -1.0020   61.2880   75.1880 C   0  0  0  0  0  0  0  0  0  0  0  0
   -0.1170   62.2760   74.7030 C   0  0  0  0  0  0  0  0  0  0  0  0
   -0.1870   63.5650   75.2640 C   0  0  0  0  0  0  0  0  0  0  0  0
   -1.0720   63.8600   76.3050 C   0  0  0  0  0  0  0  0  0  0  0  0
   -1.9110   62.8680   76.7880 C   0  0  0  0  0  0  0  0  0  0  0  0
   -1.8830   61.5930   76.2410 C   0  0  0  0  0  0  0  0  0  0  0  0
    3.1580   61.5790   68.7290 C   0  0  0  0  0  0  0  0  0  0  0  0
    3.5450   61.0310   69.7260 C   0  0  0  0  0  0  0  0  0  0  0  0
    5.4170   60.4730   71.0240 O   0  0  0  0  0  0  0  0  0  0  0  0
   -2.7870   63.1080   77.8040 O   0  0  0  0  0  0  0  0  0  0  0  0
    3.3674   58.5458   69.9156 H   0  0  0  0  0  0  0  0  0  0  0  0
    4.3938   58.2261   71.3297 H   0  0  0  0  0  0  0  0  0  0  0  0
    1.5042   58.2696   71.2564 H   0  0  0  0  0  0  0  0  0  0  0  0
    2.4887   58.1272   72.7119 H   0  0  0  0  0  0  0  0  0  0  0  0
    1.2734   60.5786   71.4084 H   0  0  0  0  0  0  0  0  0  0  0  0
    3.6423   60.7351   74.4204 H   0  0  0  0  0  0  0  0  0  0  0  0
    4.3383   59.3784   73.4710 H   0  0  0  0  0  0  0  0  0  0  0  0
    5.1469   60.9824   73.4710 H   0  0  0  0  0  0  0  0  0  0  0  0
    4.0436   62.9200   72.5011 H   0  0  0  0  0  0  0  0  0  0  0  0
    2.5922   62.7340   71.4260 H   0  0  0  0  0  0  0  0  0  0  0  0
    2.6784   62.5724   74.4730 H   0  0  0  0  0  0  0  0  0  0  0  0
    1.8833   63.8351   73.4198 H   0  0  0  0  0  0  0  0  0  0  0  0
    0.2766   62.3158   72.6427 H   0  0  0  0  0  0  0  0  0  0  0  0
    1.6299   60.0570   74.2861 H   0  0  0  0  0  0  0  0  0  0  0  0
   -0.8561   60.1247   72.5179 H   0  0  0  0  0  0  0  0  0  0  0  0
   -0.0740   58.6369   73.1599 H   0  0  0  0  0  0  0  0  0  0  0  0
   -2.0539   59.5709   74.4969 H   0  0  0  0  0  0  0  0  0  0  0  0
   -0.4942   59.2514   75.3999 H   0  0  0  0  0  0  0  0  0  0  0  0
    0.4690   64.3575   74.8747 H   0  0  0  0  0  0  0  0  0  0  0  0
   -1.1024   64.8710   76.7373 H   0  0  0  0  0  0  0  0  0  0  0  0
   -2.5546   60.8154   76.6337 H   0  0  0  0  0  0  0  0  0  0  0  0
    2.8038   62.0806   67.8164 H   0  0  0  0  0  0  0  0  0  0  0  0
    5.7057   60.4959   71.9707 H   0  0  0  0  0  0  0  0  0  0  0  0
   -3.3760   62.3828   78.1315 H   0  0  0  0  0  0  0  0  0  0  0  0
  2  1  1  0
  3  2  1  0
  4  3  1  0
  5  1  1  0
  5  4  1  0
  5  6  1  1
  7  5  1  0
  8  7  1  0
  9  8  1  0
 10  9  1  0
 10  4  1  0
 11 10  1  0
 12 11  1  0
 13 12  1  0
 14 13  2  0
 14  9  1  0
 15 14  1  0
 16 15  2  0
 17 16  1  0
 18 13  1  0
 18 17  2  0
 20 19  3  0
  1 20  1  6
 21  1  1  0
 22 17  1  0
  2 23  1  0
  2 24  1  0
  3 25  1  0
  3 26  1  0
  4 27  1  6
  6 28  1  0
  6 29  1  0
  6 30  1  0
  7 31  1  0
  7 32  1  0
  8 33  1  0
  8 34  1  0
  9 35  1  6
 10 36  1  1
 11 37  1  0
 11 38  1  0
 12 39  1  0
 12 40  1  0
 15 41  1  0
 16 42  1  0
 18 43  1  0
 19 44  1  0
 21 45  1  0
 22 46  1  0
M  END
>  <score>  (7) 
-7.041

$$$$
