=
     RDKit          3D

 55 57  0  0  0  0  0  0  0  0999 V2000
    2.8210   68.9290   66.0530 C   0  0  0  0  0  0  0  0  0  0  0  0
    4.1280   69.3720   65.8840 C   0  0  0  0  0  0  0  0  0  0  0  0
    4.4440   69.2960   64.4960 C   0  0  0  0  0  0  0  0  0  0  0  0
    3.3210   68.7910   63.8380 C   0  0  0  0  0  0  0  0  0  0  0  0
    2.3480   68.5390   64.8060 N   0  0  0  0  0  0  0  0  0  0  0  0
    3.3130   68.6190   62.4390 C   0  0  0  0  0  0  0  0  0  0  0  0
    4.4590   68.9590   61.7130 C   0  0  0  0  0  0  0  0  0  0  0  0
    5.5850   69.4610   62.3520 C   0  0  0  0  0  0  0  0  0  0  0  0
    5.5870   69.6360   63.7390 C   0  0  0  0  0  0  0  0  0  0  0  0
    4.9740   69.8590   66.9650 C   0  0  0  0  0  0  0  0  0  0  0  0
    6.3550   69.9900   66.7640 C   0  0  0  0  0  0  0  0  0  0  0  0
    7.1730   70.4670   67.7900 C   0  0  0  0  0  0  0  0  0  0  0  0
    6.6060   70.8120   69.0120 C   0  0  0  0  0  0  0  0  0  0  0  0
    5.2380   70.6890   69.2290 C   0  0  0  0  0  0  0  0  0  0  0  0
    4.4200   70.2130   68.2040 C   0  0  0  0  0  0  0  0  0  0  0  0
    7.3910   71.2750   69.9950 F   0  0  0  0  0  0  0  0  0  0  0  0
    1.0470   67.9350   64.4820 C   0  0  0  0  0  0  0  0  0  0  0  0
    0.3010   68.5910   63.3160 C   0  0  0  0  0  0  0  0  0  0  0  0
    1.1400   66.4160   64.3300 C   0  0  0  0  0  0  0  0  0  0  0  0
    1.5740   67.6290   67.6500 C   0  0  0  0  0  0  0  0  0  0  0  0
    1.9920   68.8240   67.2020 C   0  0  0  0  0  0  0  0  0  0  0  0
    0.6690   67.4020   68.8340 C   0  0  1  0  0  0  0  0  0  0  0  0
   -0.4350   66.5850   68.4550 O   0  0  0  0  0  0  0  0  0  0  0  0
    1.4500   66.7580   69.9890 C   0  0  0  0  0  0  0  0  0  0  0  0
    1.0320   65.3140   70.2910 C   0  0  2  0  0  0  0  0  0  0  0  0
    0.1650   65.3200   71.4300 O   0  0  0  0  0  0  0  0  0  0  0  0
    2.2500   64.4350   70.5550 C   0  0  0  0  0  0  0  0  0  0  0  0
    1.2260   62.4120   71.2050 O   0  0  0  0  0  1  0  0  0  0  0  0
    1.8840   62.9770   70.2910 C   0  0  0  0  0  0  0  0  0  0  0  0
    2.2830   62.5230   69.1770 O   0  0  0  0  0  0  0  0  0  0  0  0
    2.4223   68.2248   61.9279 H   0  0  0  0  0  0  0  0  0  0  0  0
    4.4685   68.8270   60.6210 H   0  0  0  0  0  0  0  0  0  0  0  0
    6.4781   69.7217   61.7651 H   0  0  0  0  0  0  0  0  0  0  0  0
    6.4791   70.0387   64.2410 H   0  0  0  0  0  0  0  0  0  0  0  0
    6.7960   69.7160   65.7942 H   0  0  0  0  0  0  0  0  0  0  0  0
    8.2569   70.5691   67.6330 H   0  0  0  0  0  0  0  0  0  0  0  0
    4.8041   70.9649   70.2014 H   0  0  0  0  0  0  0  0  0  0  0  0
    3.3367   70.1150   68.3681 H   0  0  0  0  0  0  0  0  0  0  0  0
    0.4185   68.1464   65.3596 H   0  0  0  0  0  0  0  0  0  0  0  0
   -0.4704   69.2693   63.7095 H   0  0  0  0  0  0  0  0  0  0  0  0
    1.0119   69.1618   62.7006 H   0  0  0  0  0  0  0  0  0  0  0  0
   -0.1743   67.8129   62.7006 H   0  0  0  0  0  0  0  0  0  0  0  0
    1.1686   65.9490   65.3255 H   0  0  0  0  0  0  0  0  0  0  0  0
    0.2627   66.0484   63.7776 H   0  0  0  0  0  0  0  0  0  0  0  0
    2.0556   66.1582   63.7776 H   0  0  0  0  0  0  0  0  0  0  0  0
    1.9222   66.7387   67.1058 H   0  0  0  0  0  0  0  0  0  0  0  0
    1.6873   69.7374   67.7339 H   0  0  0  0  0  0  0  0  0  0  0  0
    0.2839   68.3729   69.1792 H   0  0  0  0  0  0  0  0  0  0  0  0
   -0.8903   66.2481   69.2670 H   0  0  0  0  0  0  0  0  0  0  0  0
    2.5189   66.7623   69.7294 H   0  0  0  0  0  0  0  0  0  0  0  0
    1.2327   67.3491   70.8908 H   0  0  0  0  0  0  0  0  0  0  0  0
    0.5063   64.8967   69.4195 H   0  0  0  0  0  0  0  0  0  0  0  0
    0.7078   65.3162   72.2579 H   0  0  0  0  0  0  0  0  0  0  0  0
    3.0715   64.7347   69.8876 H   0  0  0  0  0  0  0  0  0  0  0  0
    2.5702   64.5519   71.6009 H   0  0  0  0  0  0  0  0  0  0  0  0
  2  1  2  0
  3  2  1  0
  4  3  2  0
  5  4  1  0
  5  1  1  0
  6  4  1  0
  7  6  2  0
  8  7  1  0
  9  3  1  0
  9  8  2  0
 10  2  1  0
 11 10  2  0
 12 11  1  0
 13 12  2  0
 14 13  1  0
 15 14  2  0
 15 10  1  0
 16 13  1  0
 17  5  1  0
 18 17  1  0
 19 17  1  0
 21 20  2  0
 21  1  1  0
 22 20  1  0
 23 22  1  0
 24 22  1  0
 25 24  1  0
 26 25  1  0
 27 25  1  0
 29 27  1  0
 29 28  1  0
 30 29  2  0
  6 31  1  0
  7 32  1  0
  8 33  1  0
  9 34  1  0
 11 35  1  0
 12 36  1  0
 14 37  1  0
 15 38  1  0
 17 39  1  0
 18 40  1  0
 18 41  1  0
 18 42  1  0
 19 43  1  0
 19 44  1  0
 19 45  1  0
 20 46  1  0
 21 47  1  0
 22 48  1  1
 23 49  1  0
 24 50  1  0
 24 51  1  0
 25 52  1  6
 26 53  1  0
 27 54  1  0
 27 55  1  0
M  CHG  1  28  -1
M  END
>  <score>  (1) 
-10.873

$$$$
=
     RDKit          3D

 55 57  0  0  0  0  0  0  0  0999 V2000
    1.5700   62.4330   71.8350 C   0  0  0  0  0  0  0  0  0  0  0  0
    1.0830   61.3050   72.4850 C   0  0  0  0  0  0  0  0  0  0  0  0
    1.8840   60.1910   72.0970 C   0  0  0  0  0  0  0  0  0  0  0  0
    2.8460   60.6590   71.2000 C   0  0  0  0  0  0  0  0  0  0  0  0
    2.6210   62.0250   71.0230 N   0  0  0  0  0  0  0  0  0  0  0  0
    3.8100   59.7920   70.6490 C   0  0  0  0  0  0  0  0  0  0  0  0
    3.7870   58.4420   71.0130 C   0  0  0  0  0  0  0  0  0  0  0  0
    2.8370   57.9600   71.9030 C   0  0  0  0  0  0  0  0  0  0  0  0
    1.8860   58.8230   72.4520 C   0  0  0  0  0  0  0  0  0  0  0  0
   -0.0310   61.3170   73.4240 C   0  0  0  0  0  0  0  0  0  0  0  0
    0.2140   61.4920   74.7930 C   0  0  0  0  0  0  0  0  0  0  0  0
   -0.8490   61.5170   75.6990 C   0  0  0  0  0  0  0  0  0  0  0  0
   -2.1500   61.3660   75.2320 C   0  0  0  0  0  0  0  0  0  0  0  0
   -2.4100   61.1900   73.8770 C   0  0  0  0  0  0  0  0  0  0  0  0
   -1.3500   61.1670   72.9710 C   0  0  0  0  0  0  0  0  0  0  0  0
   -3.1690   61.3940   76.1020 F   0  0  0  0  0  0  0  0  0  0  0  0
    3.4070   62.8410   70.0860 C   0  0  0  0  0  0  0  0  0  0  0  0
    4.8350   63.1580   70.5450 C   0  0  0  0  0  0  0  0  0  0  0  0
    3.3650   62.2860   68.6620 C   0  0  0  0  0  0  0  0  0  0  0  0
    0.3260   64.3050   70.9740 C   0  0  0  0  0  0  0  0  0  0  0  0
    1.1820   63.7980   71.8770 C   0  0  0  0  0  0  0  0  0  0  0  0
   -0.1290   65.7400   70.9040 C   0  0  1  0  0  0  0  0  0  0  0  0
   -0.4660   66.2100   72.2060 O   0  0  0  0  0  0  0  0  0  0  0  0
    0.9620   66.6180   70.2750 C   0  0  0  0  0  0  0  0  0  0  0  0
    0.6900   66.9930   68.8130 C   0  0  2  0  0  0  0  0  0  0  0  0
    1.0640   68.3610   68.6160 O   0  0  0  0  0  0  0  0  0  0  0  0
   -0.7790   66.7880   68.4590 C   0  0  0  0  0  0  0  0  0  0  0  0
   -2.0600   67.9230   66.8360 O   0  0  0  0  0  1  0  0  0  0  0  0
   -1.0180   67.2390   67.0210 C   0  0  0  0  0  0  0  0  0  0  0  0
   -0.1270   66.8740   66.1950 O   0  0  0  0  0  0  0  0  0  0  0  0
    4.5666   60.1699   69.9456 H   0  0  0  0  0  0  0  0  0  0  0  0
    4.5317   57.7528   70.5884 H   0  0  0  0  0  0  0  0  0  0  0  0
    2.8332   56.8946   72.1768 H   0  0  0  0  0  0  0  0  0  0  0  0
    1.1383   58.4378   73.1609 H   0  0  0  0  0  0  0  0  0  0  0  0
    1.2461   61.6100   75.1549 H   0  0  0  0  0  0  0  0  0  0  0  0
   -0.6583   61.6551   76.7735 H   0  0  0  0  0  0  0  0  0  0  0  0
   -3.4444   61.0698   73.5225 H   0  0  0  0  0  0  0  0  0  0  0  0
   -1.5489   61.0308   71.8977 H   0  0  0  0  0  0  0  0  0  0  0  0
    2.9000   63.8172   70.0787 H   0  0  0  0  0  0  0  0  0  0  0  0
    4.8734   63.1665   71.6443 H   0  0  0  0  0  0  0  0  0  0  0  0
    5.5227   62.3907   70.1600 H   0  0  0  0  0  0  0  0  0  0  0  0
    5.1335   64.1443   70.1600 H   0  0  0  0  0  0  0  0  0  0  0  0
    3.2820   61.1897   68.6980 H   0  0  0  0  0  0  0  0  0  0  0  0
    2.4958   62.7023   68.1317 H   0  0  0  0  0  0  0  0  0  0  0  0
    4.2870   62.5667   68.1317 H   0  0  0  0  0  0  0  0  0  0  0  0
   -0.0777   63.6127   70.2205 H   0  0  0  0  0  0  0  0  0  0  0  0
    1.5892   64.4518   72.6623 H   0  0  0  0  0  0  0  0  0  0  0  0
   -1.0249   65.7982   70.2684 H   0  0  0  0  0  0  0  0  0  0  0  0
   -0.0470   65.6256   72.8865 H   0  0  0  0  0  0  0  0  0  0  0  0
    1.0417   67.5452   70.8615 H   0  0  0  0  0  0  0  0  0  0  0  0
    1.8918   66.0303   70.2868 H   0  0  0  0  0  0  0  0  0  0  0  0
    1.2828   66.3418   68.1538 H   0  0  0  0  0  0  0  0  0  0  0  0
    1.1841   68.8002   69.4951 H   0  0  0  0  0  0  0  0  0  0  0  0
   -1.0357   65.7229   68.5577 H   0  0  0  0  0  0  0  0  0  0  0  0
   -1.4086   67.3790   69.1404 H   0  0  0  0  0  0  0  0  0  0  0  0
  2  1  2  0
  3  2  1  0
  4  3  2  0
  5  4  1  0
  5  1  1  0
  6  4  1  0
  7  6  2  0
  8  7  1  0
  9  3  1  0
  9  8  2  0
 10  2  1  0
 11 10  2  0
 12 11  1  0
 13 12  2  0
 14 13  1  0
 15 14  2  0
 15 10  1  0
 16 13  1  0
 17  5  1  0
 18 17  1  0
 19 17  1  0
 21 20  2  0
 21  1  1  0
 22 20  1  0
 23 22  1  0
 24 22  1  0
 25 24  1  0
 26 25  1  0
 27 25  1  0
 29 27  1  0
 29 28  1  0
 30 29  2  0
  6 31  1  0
  7 32  1  0
  8 33  1  0
  9 34  1  0
 11 35  1  0
 12 36  1  0
 14 37  1  0
 15 38  1  0
 17 39  1  0
 18 40  1  0
 18 41  1  0
 18 42  1  0
 19 43  1  0
 19 44  1  0
 19 45  1  0
 20 46  1  0
 21 47  1  0
 22 48  1  6
 23 49  1  0
 24 50  1  0
 24 51  1  0
 25 52  1  6
 26 53  1  0
 27 54  1  0
 27 55  1  0
M  CHG  1  28  -1
M  END
>  <score>  (2) 
-10.011

$$$$
=
     RDKit          3D

 55 57  0  0  0  0  0  0  0  0999 V2000
    1.6260   62.7870   73.2150 C   0  0  0  0  0  0  0  0  0  0  0  0
    2.5560   62.0170   72.5270 C   0  0  0  0  0  0  0  0  0  0  0  0
    2.9590   60.9470   73.3780 C   0  0  0  0  0  0  0  0  0  0  0  0
    2.2730   61.0910   74.5860 C   0  0  0  0  0  0  0  0  0  0  0  0
    1.4880   62.2390   74.4850 N   0  0  0  0  0  0  0  0  0  0  0  0
    2.4430   60.1640   75.6340 C   0  0  0  0  0  0  0  0  0  0  0  0
    3.3210   59.0910   75.4490 C   0  0  0  0  0  0  0  0  0  0  0  0
    4.0110   58.9340   74.2550 C   0  0  0  0  0  0  0  0  0  0  0  0
    3.8360   59.8510   73.2150 C   0  0  0  0  0  0  0  0  0  0  0  0
    2.9820   62.2750   71.1580 C   0  0  0  0  0  0  0  0  0  0  0  0
    2.3050   61.6680   70.0910 C   0  0  0  0  0  0  0  0  0  0  0  0
    2.6990   61.9190   68.7760 C   0  0  0  0  0  0  0  0  0  0  0  0
    3.7670   62.7750   68.5330 C   0  0  0  0  0  0  0  0  0  0  0  0
    4.4500   63.3850   69.5790 C   0  0  0  0  0  0  0  0  0  0  0  0
    4.0570   63.1360   70.8940 C   0  0  0  0  0  0  0  0  0  0  0  0
    4.1420   63.0190   67.2690 F   0  0  0  0  0  0  0  0  0  0  0  0
    0.6740   62.7420   75.6010 C   0  0  0  0  0  0  0  0  0  0  0  0
    0.9690   64.1880   76.0160 C   0  0  0  0  0  0  0  0  0  0  0  0
   -0.8190   62.4940   75.3840 C   0  0  0  0  0  0  0  0  0  0  0  0
    0.7860   64.3180   71.5590 C   0  0  0  0  0  0  0  0  0  0  0  0
    0.8810   63.9380   72.8440 C   0  0  0  0  0  0  0  0  0  0  0  0
    0.0520   65.5340   71.0550 C   0  0  1  0  0  0  0  0  0  0  0  0
   -0.5440   66.2320   72.1450 O   0  0  0  0  0  0  0  0  0  0  0  0
    1.0060   66.4530   70.2780 C   0  0  0  0  0  0  0  0  0  0  0  0
    0.5180   66.8020   68.8670 C   0  0  2  0  0  0  0  0  0  0  0  0
    0.7750   68.1900   68.6260 O   0  0  0  0  0  0  0  0  0  0  0  0
   -0.9690   66.5020   68.7110 C   0  0  0  0  0  0  0  0  0  0  0  0
   -2.6010   67.7830   67.5900 O   0  0  0  0  0  1  0  0  0  0  0  0
   -1.4940   67.1970   67.4580 C   0  0  0  0  0  0  0  0  0  0  0  0
   -0.7390   67.1030   66.4430 O   0  0  0  0  0  0  0  0  0  0  0  0
    1.8950   60.2822   76.5804 H   0  0  0  0  0  0  0  0  0  0  0  0
    3.4665   58.3623   76.2601 H   0  0  0  0  0  0  0  0  0  0  0  0
    4.6981   58.0846   74.1268 H   0  0  0  0  0  0  0  0  0  0  0  0
    4.3814   59.7195   72.2688 H   0  0  0  0  0  0  0  0  0  0  0  0
    1.4607   60.9918   70.2909 H   0  0  0  0  0  0  0  0  0  0  0  0
    2.1685   61.4431   67.9381 H   0  0  0  0  0  0  0  0  0  0  0  0
    5.2941   64.0590   69.3712 H   0  0  0  0  0  0  0  0  0  0  0  0
    4.5919   63.6165   71.7265 H   0  0  0  0  0  0  0  0  0  0  0  0
    0.9900   62.1400   76.4657 H   0  0  0  0  0  0  0  0  0  0  0  0
    0.9834   64.2588   77.1136 H   0  0  0  0  0  0  0  0  0  0  0  0
    1.9476   64.4919   75.6161 H   0  0  0  0  0  0  0  0  0  0  0  0
    0.1876   64.8509   75.6161 H   0  0  0  0  0  0  0  0  0  0  0  0
   -1.3222   62.4104   76.3586 H   0  0  0  0  0  0  0  0  0  0  0  0
   -1.2516   63.3326   74.8187 H   0  0  0  0  0  0  0  0  0  0  0  0
   -0.9573   61.5606   74.8187 H   0  0  0  0  0  0  0  0  0  0  0  0
    1.2872   63.6872   70.8100 H   0  0  0  0  0  0  0  0  0  0  0  0
    0.3736   64.5278   73.6216 H   0  0  0  0  0  0  0  0  0  0  0  0
   -0.7448   65.2090   70.3698 H   0  0  0  0  0  0  0  0  0  0  0  0
   -0.2184   65.8507   72.9986 H   0  0  0  0  0  0  0  0  0  0  0  0
    1.1249   67.3882   70.8449 H   0  0  0  0  0  0  0  0  0  0  0  0
    1.9537   65.9066   70.1628 H   0  0  0  0  0  0  0  0  0  0  0  0
    1.0576   66.1860   68.1326 H   0  0  0  0  0  0  0  0  0  0  0  0
    0.8628   68.6643   69.4905 H   0  0  0  0  0  0  0  0  0  0  0  0
   -1.1172   65.4160   68.6184 H   0  0  0  0  0  0  0  0  0  0  0  0
   -1.5141   66.8700   69.5928 H   0  0  0  0  0  0  0  0  0  0  0  0
  2  1  2  0
  3  2  1  0
  4  3  2  0
  5  4  1  0
  5  1  1  0
  6  4  1  0
  7  6  2  0
  8  7  1  0
  9  3  1  0
  9  8  2  0
 10  2  1  0
 11 10  2  0
 12 11  1  0
 13 12  2  0
 14 13  1  0
 15 14  2  0
 15 10  1  0
 16 13  1  0
 17  5  1  0
 18 17  1  0
 19 17  1  0
 21 20  2  0
 21  1  1  0
 22 20  1  0
 23 22  1  0
 24 22  1  0
 25 24  1  0
 26 25  1  0
 27 25  1  0
 29 27  1  0
 29 28  1  0
 30 29  2  0
  6 31  1  0
  7 32  1  0
  8 33  1  0
  9 34  1  0
 11 35  1  0
 12 36  1  0
 14 37  1  0
 15 38  1  0
 17 39  1  0
 18 40  1  0
 18 41  1  0
 18 42  1  0
 19 43  1  0
 19 44  1  0
 19 45  1  0
 20 46  1  0
 21 47  1  0
 22 48  1  6
 23 49  1  0
 24 50  1  0
 24 51  1  0
 25 52  1  6
 26 53  1  0
 27 54  1  0
 27 55  1  0
M  CHG  1  28  -1
M  END
>  <score>  (3) 
-9.406

$$$$
=
     RDKit          3D

 55 57  0  0  0  0  0  0  0  0999 V2000
    2.8470   69.1490   65.9230 C   0  0  0  0  0  0  0  0  0  0  0  0
    4.1950   69.4770   65.8370 C   0  0  0  0  0  0  0  0  0  0  0  0
    4.6010   69.3250   64.4790 C   0  0  0  0  0  0  0  0  0  0  0  0
    3.4890   68.8900   63.7560 C   0  0  0  0  0  0  0  0  0  0  0  0
    2.4320   68.7540   64.6560 N   0  0  0  0  0  0  0  0  0  0  0  0
    3.5660   68.6690   62.3660 C   0  0  0  0  0  0  0  0  0  0  0  0
    4.7860   68.8860   61.7170 C   0  0  0  0  0  0  0  0  0  0  0  0
    5.9010   69.3170   62.4210 C   0  0  0  0  0  0  0  0  0  0  0  0
    5.8200   69.5420   63.7980 C   0  0  0  0  0  0  0  0  0  0  0  0
    5.0000   69.9330   66.9620 C   0  0  0  0  0  0  0  0  0  0  0  0
    6.3900   70.0530   66.8200 C   0  0  0  0  0  0  0  0  0  0  0  0
    7.1690   70.5000   67.8900 C   0  0  0  0  0  0  0  0  0  0  0  0
    6.5550   70.8250   69.0940 C   0  0  0  0  0  0  0  0  0  0  0  0
    5.1790   70.7110   69.2520 C   0  0  0  0  0  0  0  0  0  0  0  0
    4.3990   70.2660   68.1840 C   0  0  0  0  0  0  0  0  0  0  0  0
    7.3040   71.2590   70.1180 F   0  0  0  0  0  0  0  0  0  0  0  0
    1.1110   68.2470   64.2560 C   0  0  0  0  0  0  0  0  0  0  0  0
    0.4950   68.9390   63.0350 C   0  0  0  0  0  0  0  0  0  0  0  0
    1.0930   66.7240   64.1310 C   0  0  0  0  0  0  0  0  0  0  0  0
    0.6810   69.6190   66.8610 C   0  0  0  0  0  0  0  0  0  0  0  0
    1.9320   69.1550   67.0100 C   0  0  0  0  0  0  0  0  0  0  0  0
   -0.3600   69.7030   67.9480 C   0  0  1  0  0  0  0  0  0  0  0  0
   -1.0220   70.9630   67.8940 O   0  0  0  0  0  0  0  0  0  0  0  0
   -1.3690   68.5530   67.8130 C   0  0  0  0  0  0  0  0  0  0  0  0
   -0.7220   67.1660   67.7390 C   0  0  2  0  0  0  0  0  0  0  0  0
   -1.2630   66.4700   66.6110 O   0  0  0  0  0  0  0  0  0  0  0  0
   -0.9700   66.3760   69.0190 C   0  0  0  0  0  0  0  0  0  0  0  0
    0.2320   65.8570   70.9810 O   0  0  0  0  0  1  0  0  0  0  0  0
    0.3430   66.2270   69.7820 C   0  0  0  0  0  0  0  0  0  0  0  0
    1.3830   66.4870   69.1040 O   0  0  0  0  0  0  0  0  0  0  0  0
    2.6835   68.3323   61.8023 H   0  0  0  0  0  0  0  0  0  0  0  0
    4.8623   68.7125   60.6335 H   0  0  0  0  0  0  0  0  0  0  0  0
    6.8521   69.4822   61.8936 H   0  0  0  0  0  0  0  0  0  0  0  0
    6.7052   69.8880   64.3517 H   0  0  0  0  0  0  0  0  0  0  0  0
    6.8681   69.7945   65.8637 H   0  0  0  0  0  0  0  0  0  0  0  0
    8.2595   70.5940   67.7806 H   0  0  0  0  0  0  0  0  0  0  0  0
    4.7082   70.9697   70.2119 H   0  0  0  0  0  0  0  0  0  0  0  0
    3.3090   70.1762   68.3013 H   0  0  0  0  0  0  0  0  0  0  0  0
    0.4460   68.5218   65.0880 H   0  0  0  0  0  0  0  0  0  0  0  0
   -0.2017   69.7216   63.3698 H   0  0  0  0  0  0  0  0  0  0  0  0
    1.2932   69.3932   62.4295 H   0  0  0  0  0  0  0  0  0  0  0  0
   -0.0486   68.1988   62.4295 H   0  0  0  0  0  0  0  0  0  0  0  0
    1.0877   66.2738   65.1346 H   0  0  0  0  0  0  0  0  0  0  0  0
    0.1911   66.4116   63.5842 H   0  0  0  0  0  0  0  0  0  0  0  0
    1.9873   66.3904   63.5842 H   0  0  0  0  0  0  0  0  0  0  0  0
    0.3906   69.9680   65.8591 H   0  0  0  0  0  0  0  0  0  0  0  0
    2.2540   68.7731   67.9900 H   0  0  0  0  0  0  0  0  0  0  0  0
    0.1373   69.6106   68.9248 H   0  0  0  0  0  0  0  0  0  0  0  0
   -1.1918   71.2862   68.8142 H   0  0  0  0  0  0  0  0  0  0  0  0
   -2.0397   68.5764   68.6845 H   0  0  0  0  0  0  0  0  0  0  0  0
   -1.9043   68.7071   66.8645 H   0  0  0  0  0  0  0  0  0  0  0  0
    0.3664   67.2781   67.6260 H   0  0  0  0  0  0  0  0  0  0  0  0
   -1.8390   65.7289   66.9257 H   0  0  0  0  0  0  0  0  0  0  0  0
   -1.7001   66.9101   69.6448 H   0  0  0  0  0  0  0  0  0  0  0  0
   -1.3648   65.3807   68.7671 H   0  0  0  0  0  0  0  0  0  0  0  0
  2  1  2  0
  3  2  1  0
  4  3  2  0
  5  4  1  0
  5  1  1  0
  6  4  1  0
  7  6  2  0
  8  7  1  0
  9  3  1  0
  9  8  2  0
 10  2  1  0
 11 10  2  0
 12 11  1  0
 13 12  2  0
 14 13  1  0
 15 14  2  0
 15 10  1  0
 16 13  1  0
 17  5  1  0
 18 17  1  0
 19 17  1  0
 21 20  2  0
 21  1  1  0
 22 20  1  0
 23 22  1  0
 24 22  1  0
 25 24  1  0
 26 25  1  0
 27 25  1  0
 29 27  1  0
 29 28  1  0
 30 29  2  0
  6 31  1  0
  7 32  1  0
  8 33  1  0
  9 34  1  0
 11 35  1  0
 12 36  1  0
 14 37  1  0
 15 38  1  0
 17 39  1  0
 18 40  1  0
 18 41  1  0
 18 42  1  0
 19 43  1  0
 19 44  1  0
 19 45  1  0
 20 46  1  0
 21 47  1  0
 22 48  1  1
 23 49  1  0
 24 50  1  0
 24 51  1  0
 25 52  1  6
 26 53  1  0
 27 54  1  0
 27 55  1  0
M  CHG  1  28  -1
M  END
>  <score>  (4) 
-9.4

$$$$
=
     RDKit          3D

 55 57  0  0  0  0  0  0  0  0999 V2000
    1.9240   61.4570   72.4370 C   0  0  0  0  0  0  0  0  0  0  0  0
    0.8150   62.2550   72.6920 C   0  0  0  0  0  0  0  0  0  0  0  0
    0.9330   63.4380   71.9060 C   0  0  0  0  0  0  0  0  0  0  0  0
    2.1270   63.3480   71.1880 C   0  0  0  0  0  0  0  0  0  0  0  0
    2.7390   62.1470   71.5480 N   0  0  0  0  0  0  0  0  0  0  0  0
    2.5170   64.3650   70.2940 C   0  0  0  0  0  0  0  0  0  0  0  0
    1.6870   65.4800   70.1390 C   0  0  0  0  0  0  0  0  0  0  0  0
    0.4970   65.5860   70.8460 C   0  0  0  0  0  0  0  0  0  0  0  0
    0.1090   64.5730   71.7270 C   0  0  0  0  0  0  0  0  0  0  0  0
   -0.2730   61.8840   73.5860 C   0  0  0  0  0  0  0  0  0  0  0  0
   -0.1610   62.1330   74.9610 C   0  0  0  0  0  0  0  0  0  0  0  0
   -1.2050   61.7910   75.8240 C   0  0  0  0  0  0  0  0  0  0  0  0
   -2.3540   61.2030   75.3080 C   0  0  0  0  0  0  0  0  0  0  0  0
   -2.4810   60.9480   73.9480 C   0  0  0  0  0  0  0  0  0  0  0  0
   -1.4400   61.2910   73.0840 C   0  0  0  0  0  0  0  0  0  0  0  0
   -3.3570   60.8800   76.1370 F   0  0  0  0  0  0  0  0  0  0  0  0
    4.0580   61.7470   71.0360 C   0  0  0  0  0  0  0  0  0  0  0  0
    5.1080   61.4520   72.1120 C   0  0  0  0  0  0  0  0  0  0  0  0
    3.9590   60.6270   70.0000 C   0  0  0  0  0  0  0  0  0  0  0  0
    1.6170   59.0730   72.5600 C   0  0  0  0  0  0  0  0  0  0  0  0
    2.3030   60.1730   72.9110 C   0  0  0  0  0  0  0  0  0  0  0  0
    1.9080   57.6690   73.0270 C   0  0  1  0  0  0  0  0  0  0  0  0
    2.8060   57.0310   72.1230 O   0  0  0  0  0  0  0  0  0  0  0  0
    2.4880   57.6860   74.4490 C   0  0  0  0  0  0  0  0  0  0  0  0
    2.1490   56.4380   75.2710 C   0  0  2  0  0  0  0  0  0  0  0  0
    3.3630   55.7290   75.5450 O   0  0  0  0  0  0  0  0  0  0  0  0
    1.1670   55.5410   74.5260 C   0  0  0  0  0  0  0  0  0  0  0  0
    2.6040   54.1990   73.2210 O   0  0  0  0  0  1  0  0  0  0  0  0
    1.8380   54.2040   74.2220 C   0  0  0  0  0  0  0  0  0  0  0  0
    1.5440   53.2680   75.0260 O   0  0  0  0  0  0  0  0  0  0  0  0
    3.4569   64.2835   69.7284 H   0  0  0  0  0  0  0  0  0  0  0  0
    1.9810   66.2836   69.4477 H   0  0  0  0  0  0  0  0  0  0  0  0
   -0.1429   66.4707   70.7122 H   0  0  0  0  0  0  0  0  0  0  0  0
   -0.8374   64.6586   72.2812 H   0  0  0  0  0  0  0  0  0  0  0  0
    0.7514   62.5989   75.3615 H   0  0  0  0  0  0  0  0  0  0  0  0
   -1.1185   61.9855   76.9032 H   0  0  0  0  0  0  0  0  0  0  0  0
   -3.3953   60.4792   73.5552 H   0  0  0  0  0  0  0  0  0  0  0  0
   -1.5355   61.0955   72.0057 H   0  0  0  0  0  0  0  0  0  0  0  0
    4.4376   62.6436   70.5240 H   0  0  0  0  0  0  0  0  0  0  0  0
    4.6581   61.5784   73.1078 H   0  0  0  0  0  0  0  0  0  0  0  0
    5.4670   60.4182   72.0004 H   0  0  0  0  0  0  0  0  0  0  0  0
    5.9528   62.1476   72.0004 H   0  0  0  0  0  0  0  0  0  0  0  0
    3.8734   59.6584   70.5142 H   0  0  0  0  0  0  0  0  0  0  0  0
    3.0715   60.7875   69.3702 H   0  0  0  0  0  0  0  0  0  0  0  0
    4.8609   60.6293   69.3702 H   0  0  0  0  0  0  0  0  0  0  0  0
    0.7693   59.2079   71.8721 H   0  0  0  0  0  0  0  0  0  0  0  0
    3.1733   60.0778   73.5770 H   0  0  0  0  0  0  0  0  0  0  0  0
    0.9677   57.0985   73.0480 H   0  0  0  0  0  0  0  0  0  0  0  0
    3.4967   56.5403   72.6352 H   0  0  0  0  0  0  0  0  0  0  0  0
    3.5826   57.7662   74.3760 H   0  0  0  0  0  0  0  0  0  0  0  0
    2.0363   58.5439   74.9686 H   0  0  0  0  0  0  0  0  0  0  0  0
    1.6692   56.7419   76.2131 H   0  0  0  0  0  0  0  0  0  0  0  0
    3.4885   55.6557   76.5243 H   0  0  0  0  0  0  0  0  0  0  0  0
    0.2769   55.3723   75.1499 H   0  0  0  0  0  0  0  0  0  0  0  0
    0.8655   56.0250   73.5853 H   0  0  0  0  0  0  0  0  0  0  0  0
  2  1  2  0
  3  2  1  0
  4  3  2  0
  5  4  1  0
  5  1  1  0
  6  4  1  0
  7  6  2  0
  8  7  1  0
  9  3  1  0
  9  8  2  0
 10  2  1  0
 11 10  2  0
 12 11  1  0
 13 12  2  0
 14 13  1  0
 15 14  2  0
 15 10  1  0
 16 13  1  0
 17  5  1  0
 18 17  1  0
 19 17  1  0
 21 20  2  0
 21  1  1  0
 22 20  1  0
 23 22  1  0
 24 22  1  0
 25 24  1  0
 26 25  1  0
 27 25  1  0
 29 27  1  0
 29 28  1  0
 30 29  2  0
  6 31  1  0
  7 32  1  0
  8 33  1  0
  9 34  1  0
 11 35  1  0
 12 36  1  0
 14 37  1  0
 15 38  1  0
 17 39  1  0
 18 40  1  0
 18 41  1  0
 18 42  1  0
 19 43  1  0
 19 44  1  0
 19 45  1  0
 20 46  1  0
 21 47  1  0
 22 48  1  1
 23 49  1  0
 24 50  1  0
 24 51  1  0
 25 52  1  1
 26 53  1  0
 27 54  1  0
 27 55  1  0
M  CHG  1  28  -1
M  END
>  <score>  (5) 
-9.25

$$$$
=
     RDKit          3D

 55 57  0  0  0  0  0  0  0  0999 V2000
    0.9340   68.5260   66.5300 C   0  0  0  0  0  0  0  0  0  0  0  0
    1.9590   68.9210   65.6790 C   0  0  0  0  0  0  0  0  0  0  0  0
    1.4310   68.9980   64.3570 C   0  0  0  0  0  0  0  0  0  0  0  0
    0.0850   68.6330   64.4220 C   0  0  0  0  0  0  0  0  0  0  0  0
   -0.1970   68.3140   65.7510 N   0  0  0  0  0  0  0  0  0  0  0  0
   -0.7250   68.6320   63.2690 C   0  0  0  0  0  0  0  0  0  0  0  0
   -0.1550   68.9990   62.0460 C   0  0  0  0  0  0  0  0  0  0  0  0
    1.1820   69.3640   61.9640 C   0  0  0  0  0  0  0  0  0  0  0  0
    1.9810   69.3700   63.1100 C   0  0  0  0  0  0  0  0  0  0  0  0
    3.3130   69.2320   66.1170 C   0  0  0  0  0  0  0  0  0  0  0  0
    4.3990   68.9490   65.2760 C   0  0  0  0  0  0  0  0  0  0  0  0
    5.7000   69.2540   65.6830 C   0  0  0  0  0  0  0  0  0  0  0  0
    5.9080   69.8410   66.9260 C   0  0  0  0  0  0  0  0  0  0  0  0
    4.8430   70.1280   67.7720 C   0  0  0  0  0  0  0  0  0  0  0  0
    3.5430   69.8250   67.3670 C   0  0  0  0  0  0  0  0  0  0  0  0
    7.1570   70.1380   67.3120 F   0  0  0  0  0  0  0  0  0  0  0  0
   -1.5120   67.8190   66.1840 C   0  0  0  0  0  0  0  0  0  0  0  0
   -1.4710   66.7410   67.2730 C   0  0  0  0  0  0  0  0  0  0  0  0
   -2.4710   68.9580   66.5310 C   0  0  0  0  0  0  0  0  0  0  0  0
    1.2470   67.1530   68.4820 C   0  0  0  0  0  0  0  0  0  0  0  0
    0.8860   68.3250   67.9360 C   0  0  0  0  0  0  0  0  0  0  0  0
    1.2060   66.8180   69.9510 C   0  0  1  0  0  0  0  0  0  0  0  0
   -0.1420   66.8060   70.4120 O   0  0  0  0  0  0  0  0  0  0  0  0
    1.8810   65.4630   70.2110 C   0  0  0  0  0  0  0  0  0  0  0  0
    0.9010   64.3440   70.5800 C   0  0  2  0  0  0  0  0  0  0  0  0
    0.4520   64.5560   71.9230 O   0  0  0  0  0  0  0  0  0  0  0  0
    1.5600   62.9740   70.4510 C   0  0  0  0  0  0  0  0  0  0  0  0
    0.5980   61.5330   72.0520 O   0  0  0  0  0  1  0  0  0  0  0  0
    1.5760   62.2920   71.8160 C   0  0  0  0  0  0  0  0  0  0  0  0
    2.5810   62.5710   72.5370 O   0  0  0  0  0  0  0  0  0  0  0  0
   -1.7859   68.3478   63.3299 H   0  0  0  0  0  0  0  0  0  0  0  0
   -0.7742   68.9985   61.1368 H   0  0  0  0  0  0  0  0  0  0  0  0
    1.6137   69.6495   60.9934 H   0  0  0  0  0  0  0  0  0  0  0  0
    3.0386   69.6644   63.0414 H   0  0  0  0  0  0  0  0  0  0  0  0
    4.2259   68.4857   64.2935 H   0  0  0  0  0  0  0  0  0  0  0  0
    6.5532   69.0315   65.0253 H   0  0  0  0  0  0  0  0  0  0  0  0
    5.0240   70.5906   68.7535 H   0  0  0  0  0  0  0  0  0  0  0  0
    2.6953   70.0519   68.0303 H   0  0  0  0  0  0  0  0  0  0  0  0
   -1.9152   67.2998   65.3020 H   0  0  0  0  0  0  0  0  0  0  0  0
   -1.4892   67.2194   68.2634 H   0  0  0  0  0  0  0  0  0  0  0  0
   -2.3447   66.0809   67.1686 H   0  0  0  0  0  0  0  0  0  0  0  0
   -0.5497   66.1491   67.1686 H   0  0  0  0  0  0  0  0  0  0  0  0
   -2.5494   69.0511   67.6242 H   0  0  0  0  0  0  0  0  0  0  0  0
   -2.0898   69.8997   66.1092 H   0  0  0  0  0  0  0  0  0  0  0  0
   -3.4638   68.7427   66.1092 H   0  0  0  0  0  0  0  0  0  0  0  0
    1.6037   66.3690   67.7979 H   0  0  0  0  0  0  0  0  0  0  0  0
    0.5473   69.1437   68.5880 H   0  0  0  0  0  0  0  0  0  0  0  0
    1.7593   67.5892   70.5069 H   0  0  0  0  0  0  0  0  0  0  0  0
   -0.1522   66.8059   71.4019 H   0  0  0  0  0  0  0  0  0  0  0  0
    2.4213   65.1644   69.3006 H   0  0  0  0  0  0  0  0  0  0  0  0
    2.5508   65.5991   71.0729 H   0  0  0  0  0  0  0  0  0  0  0  0
    0.0457   64.3663   69.8886 H   0  0  0  0  0  0  0  0  0  0  0  0
    1.1402   64.2311   72.5562 H   0  0  0  0  0  0  0  0  0  0  0  0
    0.9910   62.3580   69.7391 H   0  0  0  0  0  0  0  0  0  0  0  0
    2.5910   63.0937   70.0866 H   0  0  0  0  0  0  0  0  0  0  0  0
  2  1  2  0
  3  2  1  0
  4  3  2  0
  5  4  1  0
  5  1  1  0
  6  4  1  0
  7  6  2  0
  8  7  1  0
  9  3  1  0
  9  8  2  0
 10  2  1  0
 11 10  2  0
 12 11  1  0
 13 12  2  0
 14 13  1  0
 15 14  2  0
 15 10  1  0
 16 13  1  0
 17  5  1  0
 18 17  1  0
 19 17  1  0
 21 20  2  0
 21  1  1  0
 22 20  1  0
 23 22  1  0
 24 22  1  0
 25 24  1  0
 26 25  1  0
 27 25  1  0
 29 27  1  0
 29 28  1  0
 30 29  2  0
  6 31  1  0
  7 32  1  0
  8 33  1  0
  9 34  1  0
 11 35  1  0
 12 36  1  0
 14 37  1  0
 15 38  1  0
 17 39  1  0
 18 40  1  0
 18 41  1  0
 18 42  1  0
 19 43  1  0
 19 44  1  0
 19 45  1  0
 20 46  1  0
 21 47  1  0
 22 48  1  1
 23 49  1  0
 24 50  1  0
 24 51  1  0
 25 52  1  6
 26 53  1  0
 27 54  1  0
 27 55  1  0
M  CHG  1  28  -1
M  END
>  <score>  (6) 
-9.104

$$$$
=
     RDKit          3D

 55 57  0  0  0  0  0  0  0  0999 V2000
    0.5260   68.4800   66.2970 C   0  0  0  0  0  0  0  0  0  0  0  0
    1.5890   68.4180   67.1910 C   0  0  0  0  0  0  0  0  0  0  0  0
    1.1760   67.6420   68.3140 C   0  0  0  0  0  0  0  0  0  0  0  0
   -0.1460   67.2510   68.0890 C   0  0  0  0  0  0  0  0  0  0  0  0
   -0.5410   67.7990   66.8690 N   0  0  0  0  0  0  0  0  0  0  0  0
   -0.8340   66.4460   69.0190 C   0  0  0  0  0  0  0  0  0  0  0  0
   -0.1710   66.0440   70.1830 C   0  0  0  0  0  0  0  0  0  0  0  0
    1.1430   66.4240   70.4210 C   0  0  0  0  0  0  0  0  0  0  0  0
    1.8250   67.2180   69.4950 C   0  0  0  0  0  0  0  0  0  0  0  0
    2.8930   69.0230   66.9590 C   0  0  0  0  0  0  0  0  0  0  0  0
    3.4820   69.8140   67.9550 C   0  0  0  0  0  0  0  0  0  0  0  0
    4.7370   70.3890   67.7450 C   0  0  0  0  0  0  0  0  0  0  0  0
    5.3970   70.1690   66.5410 C   0  0  0  0  0  0  0  0  0  0  0  0
    4.8280   69.3880   65.5430 C   0  0  0  0  0  0  0  0  0  0  0  0
    3.5740   68.8130   65.7510 C   0  0  0  0  0  0  0  0  0  0  0  0
    6.6040   70.7180   66.3430 F   0  0  0  0  0  0  0  0  0  0  0  0
   -1.9050   67.6510   66.3390 C   0  0  0  0  0  0  0  0  0  0  0  0
   -2.8760   66.8960   67.2540 C   0  0  0  0  0  0  0  0  0  0  0  0
   -2.4810   68.9800   65.8520 C   0  0  0  0  0  0  0  0  0  0  0  0
    0.5380   68.3650   63.8930 C   0  0  0  0  0  0  0  0  0  0  0  0
    0.3920   69.0840   65.0180 C   0  0  0  0  0  0  0  0  0  0  0  0
    0.4500   68.9050   62.4880 C   0  0  1  0  0  0  0  0  0  0  0  0
   -0.7360   69.6790   62.3360 O   0  0  0  0  0  0  0  0  0  0  0  0
    1.6930   69.7440   62.1570 C   0  0  0  0  0  0  0  0  0  0  0  0
    2.9120   68.9100   61.7460 C   0  0  2  0  0  0  0  0  0  0  0  0
    2.8450   68.6690   60.3360 O   0  0  0  0  0  0  0  0  0  0  0  0
    2.9550   67.5900   62.5080 C   0  0  0  0  0  0  0  0  0  0  0  0
    5.2930   67.8450   62.3210 O   0  0  0  0  0  1  0  0  0  0  0  0
    4.3610   67.0030   62.4180 C   0  0  0  0  0  0  0  0  0  0  0  0
    4.4110   65.7360   62.4630 O   0  0  0  0  0  0  0  0  0  0  0  0
   -1.8738   66.1394   68.8327 H   0  0  0  0  0  0  0  0  0  0  0  0
   -0.6973   65.4188   70.9193 H   0  0  0  0  0  0  0  0  0  0  0  0
    1.6492   66.0989   71.3419 H   0  0  0  0  0  0  0  0  0  0  0  0
    2.8674   67.5129   69.6858 H   0  0  0  0  0  0  0  0  0  0  0  0
    2.9539   69.9823   68.9051 H   0  0  0  0  0  0  0  0  0  0  0  0
    5.1997   71.0108   68.5255 H   0  0  0  0  0  0  0  0  0  0  0  0
    5.3623   69.2241   64.5956 H   0  0  0  0  0  0  0  0  0  0  0  0
    3.1180   68.1930   64.9651 H   0  0  0  0  0  0  0  0  0  0  0  0
   -1.7912   66.9955   65.4630 H   0  0  0  0  0  0  0  0  0  0  0  0
   -2.6196   67.0954   68.3049 H   0  0  0  0  0  0  0  0  0  0  0  0
   -3.9039   67.2345   67.0568 H   0  0  0  0  0  0  0  0  0  0  0  0
   -2.8013   65.8164   67.0568 H   0  0  0  0  0  0  0  0  0  0  0  0
   -2.7506   69.6021   66.7182 H   0  0  0  0  0  0  0  0  0  0  0  0
   -1.7294   69.5044   65.2436 H   0  0  0  0  0  0  0  0  0  0  0  0
   -3.3776   68.7901   65.2436 H   0  0  0  0  0  0  0  0  0  0  0  0
    0.7391   67.2895   64.0064 H   0  0  0  0  0  0  0  0  0  0  0  0
    0.1650   70.1580   64.9480 H   0  0  0  0  0  0  0  0  0  0  0  0
    0.4095   68.0605   61.7843 H   0  0  0  0  0  0  0  0  0  0  0  0
   -1.0942   69.9128   63.2288 H   0  0  0  0  0  0  0  0  0  0  0  0
    1.4424   70.4231   61.3287 H   0  0  0  0  0  0  0  0  0  0  0  0
    1.9690   70.2831   63.0752 H   0  0  0  0  0  0  0  0  0  0  0  0
    3.8307   69.4632   61.9908 H   0  0  0  0  0  0  0  0  0  0  0  0
    2.5834   67.7280   60.1741 H   0  0  0  0  0  0  0  0  0  0  0  0
    2.6967   67.7657   63.5627 H   0  0  0  0  0  0  0  0  0  0  0  0
    2.2324   66.8865   62.0687 H   0  0  0  0  0  0  0  0  0  0  0  0
  2  1  2  0
  3  2  1  0
  4  3  2  0
  5  4  1  0
  5  1  1  0
  6  4  1  0
  7  6  2  0
  8  7  1  0
  9  3  1  0
  9  8  2  0
 10  2  1  0
 11 10  2  0
 12 11  1  0
 13 12  2  0
 14 13  1  0
 15 14  2  0
 15 10  1  0
 16 13  1  0
 17  5  1  0
 18 17  1  0
 19 17  1  0
 21 20  2  0
 21  1  1  0
 22 20  1  0
 23 22  1  0
 24 22  1  0
 25 24  1  0
 26 25  1  0
 27 25  1  0
 29 27  1  0
 29 28  1  0
 30 29  2  0
  6 31  1  0
  7 32  1  0
  8 33  1  0
  9 34  1  0
 11 35  1  0
 12 36  1  0
 14 37  1  0
 15 38  1  0
 17 39  1  0
 18 40  1  0
 18 41  1  0
 18 42  1  0
 19 43  1  0
 19 44  1  0
 19 45  1  0
 20 46  1  0
 21 47  1  0
 22 48  1  6
 23 49  1  0
 24 50  1  0
 24 51  1  0
 25 52  1  6
 26 53  1  0
 27 54  1  0
 27 55  1  0
M  CHG  1  28  -1
M  END
>  <score>  (7) 
-9.095

$$$$
=
     RDKit          3D

 55 57  0  0  0  0  0  0  0  0999 V2000
    0.6980   59.3290   73.6170 C   0  0  0  0  0  0  0  0  0  0  0  0
   -0.1520   58.3820   74.1760 C   0  0  0  0  0  0  0  0  0  0  0  0
   -1.4260   58.9910   74.3690 C   0  0  0  0  0  0  0  0  0  0  0  0
   -1.3290   60.3140   73.9320 C   0  0  0  0  0  0  0  0  0  0  0  0
   -0.0160   60.5170   73.5070 N   0  0  0  0  0  0  0  0  0  0  0  0
   -2.4420   61.1770   73.9730 C   0  0  0  0  0  0  0  0  0  0  0  0
   -3.6560   60.6880   74.4670 C   0  0  0  0  0  0  0  0  0  0  0  0
   -3.7700   59.3760   74.9060 C   0  0  0  0  0  0  0  0  0  0  0  0
   -2.6660   58.5200   74.8580 C   0  0  0  0  0  0  0  0  0  0  0  0
    0.2290   57.0050   74.4600 C   0  0  0  0  0  0  0  0  0  0  0  0
    1.0790   56.7260   75.5390 C   0  0  0  0  0  0  0  0  0  0  0  0
    1.4400   55.4070   75.8260 C   0  0  0  0  0  0  0  0  0  0  0  0
    0.9490   54.3760   75.0330 C   0  0  0  0  0  0  0  0  0  0  0  0
    0.1060   54.6350   73.9590 C   0  0  0  0  0  0  0  0  0  0  0  0
   -0.2560   55.9510   73.6720 C   0  0  0  0  0  0  0  0  0  0  0  0
    1.2930   53.1110   75.3130 F   0  0  0  0  0  0  0  0  0  0  0  0
    0.4720   61.8230   73.0410 C   0  0  0  0  0  0  0  0  0  0  0  0
   -0.3660   62.4690   71.9320 C   0  0  0  0  0  0  0  0  0  0  0  0
    0.7410   62.7840   74.2000 C   0  0  0  0  0  0  0  0  0  0  0  0
    2.3790   58.7420   71.9980 C   0  0  0  0  0  0  0  0  0  0  0  0
    2.0510   59.2620   73.1920 C   0  0  0  0  0  0  0  0  0  0  0  0
    3.7790   58.5910   71.4590 C   0  0  1  0  0  0  0  0  0  0  0  0
    3.7550   57.8560   70.2390 O   0  0  0  0  0  0  0  0  0  0  0  0
    4.4250   59.9690   71.2520 C   0  0  0  0  0  0  0  0  0  0  0  0
    3.8710   60.7380   70.0470 C   0  0  2  0  0  0  0  0  0  0  0  0
    4.4270   60.1760   68.8530 O   0  0  0  0  0  0  0  0  0  0  0  0
    4.2080   62.2220   70.1420 C   0  0  0  0  0  0  0  0  0  0  0  0
    3.7130   63.0870   68.0040 O   0  0  0  0  0  1  0  0  0  0  0  0
    3.3050   63.0050   69.1940 C   0  0  0  0  0  0  0  0  0  0  0  0
    2.2500   63.4670   69.7250 O   0  0  0  0  0  0  0  0  0  0  0  0
   -2.3579   62.2164   73.6229 H   0  0  0  0  0  0  0  0  0  0  0  0
   -4.5320   61.3520   74.5081 H   0  0  0  0  0  0  0  0  0  0  0  0
   -4.7321   59.0089   75.2928 H   0  0  0  0  0  0  0  0  0  0  0  0
   -2.7621   57.4792   75.2009 H   0  0  0  0  0  0  0  0  0  0  0  0
    1.4629   57.5476   76.1615 H   0  0  0  0  0  0  0  0  0  0  0  0
    2.1071   55.1862   76.6723 H   0  0  0  0  0  0  0  0  0  0  0  0
   -0.2729   53.8084   73.3400 H   0  0  0  0  0  0  0  0  0  0  0  0
   -0.9244   56.1630   72.8245 H   0  0  0  0  0  0  0  0  0  0  0  0
    1.4358   61.6017   72.5593 H   0  0  0  0  0  0  0  0  0  0  0  0
   -1.1607   63.0816   72.3826 H   0  0  0  0  0  0  0  0  0  0  0  0
    0.2790   63.1058   71.3088 H   0  0  0  0  0  0  0  0  0  0  0  0
   -0.8177   61.6832   71.3088 H   0  0  0  0  0  0  0  0  0  0  0  0
    0.5936   62.2576   75.1545 H   0  0  0  0  0  0  0  0  0  0  0  0
    1.7763   63.1507   74.1395 H   0  0  0  0  0  0  0  0  0  0  0  0
    0.0465   63.6349   74.1395 H   0  0  0  0  0  0  0  0  0  0  0  0
    1.5544   58.3961   71.3574 H   0  0  0  0  0  0  0  0  0  0  0  0
    2.8443   59.6426   73.8521 H   0  0  0  0  0  0  0  0  0  0  0  0
    4.3846   58.0355   72.1903 H   0  0  0  0  0  0  0  0  0  0  0  0
    3.7234   56.8868   70.4382 H   0  0  0  0  0  0  0  0  0  0  0  0
    4.2539   60.5715   72.1563 H   0  0  0  0  0  0  0  0  0  0  0  0
    5.4936   59.7956   71.0573 H   0  0  0  0  0  0  0  0  0  0  0  0
    2.7748   60.6485   70.0306 H   0  0  0  0  0  0  0  0  0  0  0  0
    5.1025   59.4932   69.0931 H   0  0  0  0  0  0  0  0  0  0  0  0
    4.0481   62.5700   71.1732 H   0  0  0  0  0  0  0  0  0  0  0  0
    5.2604   62.3798   69.8634 H   0  0  0  0  0  0  0  0  0  0  0  0
  2  1  2  0
  3  2  1  0
  4  3  2  0
  5  4  1  0
  5  1  1  0
  6  4  1  0
  7  6  2  0
  8  7  1  0
  9  3  1  0
  9  8  2  0
 10  2  1  0
 11 10  2  0
 12 11  1  0
 13 12  2  0
 14 13  1  0
 15 14  2  0
 15 10  1  0
 16 13  1  0
 17  5  1  0
 18 17  1  0
 19 17  1  0
 21 20  2  0
 21  1  1  0
 22 20  1  0
 23 22  1  0
 24 22  1  0
 25 24  1  0
 26 25  1  0
 27 25  1  0
 29 27  1  0
 29 28  1  0
 30 29  2  0
  6 31  1  0
  7 32  1  0
  8 33  1  0
  9 34  1  0
 11 35  1  0
 12 36  1  0
 14 37  1  0
 15 38  1  0
 17 39  1  0
 18 40  1  0
 18 41  1  0
 18 42  1  0
 19 43  1  0
 19 44  1  0
 19 45  1  0
 20 46  1  0
 21 47  1  0
 22 48  1  1
 23 49  1  0
 24 50  1  0
 24 51  1  0
 25 52  1  6
 26 53  1  0
 27 54  1  0
 27 55  1  0
M  CHG  1  28  -1
M  END
>  <score>  (8) 
-8.984

$$$$
=
     RDKit          3D

 55 57  0  0  0  0  0  0  0  0999 V2000
    2.8910   68.8300   65.8110 C   0  0  0  0  0  0  0  0  0  0  0  0
    2.2010   68.9760   67.0090 C   0  0  0  0  0  0  0  0  0  0  0  0
    3.0440   69.6740   67.9220 C   0  0  0  0  0  0  0  0  0  0  0  0
    4.2480   69.9340   67.2650 C   0  0  0  0  0  0  0  0  0  0  0  0
    4.1540   69.3830   65.9870 N   0  0  0  0  0  0  0  0  0  0  0  0
    5.2880   70.6390   67.9040 C   0  0  0  0  0  0  0  0  0  0  0  0
    5.0980   71.0730   69.2200 C   0  0  0  0  0  0  0  0  0  0  0  0
    3.9070   70.8220   69.8880 C   0  0  0  0  0  0  0  0  0  0  0  0
    2.8750   70.1290   69.2490 C   0  0  0  0  0  0  0  0  0  0  0  0
    0.8380   68.5130   67.2310 C   0  0  0  0  0  0  0  0  0  0  0  0
    0.6070   67.3790   68.0230 C   0  0  0  0  0  0  0  0  0  0  0  0
   -0.6970   66.9350   68.2510 C   0  0  0  0  0  0  0  0  0  0  0  0
   -1.7640   67.6270   67.6870 C   0  0  0  0  0  0  0  0  0  0  0  0
   -1.5530   68.7530   66.9000 C   0  0  0  0  0  0  0  0  0  0  0  0
   -0.2500   69.1980   66.6720 C   0  0  0  0  0  0  0  0  0  0  0  0
   -3.0150   67.2030   67.9110 F   0  0  0  0  0  0  0  0  0  0  0  0
    5.2700   69.4070   65.0300 C   0  0  0  0  0  0  0  0  0  0  0  0
    6.1030   70.6930   65.0390 C   0  0  0  0  0  0  0  0  0  0  0  0
    6.1380   68.1520   65.1270 C   0  0  0  0  0  0  0  0  0  0  0  0
    1.5860   68.8150   63.7890 C   0  0  0  0  0  0  0  0  0  0  0  0
    2.5260   68.2530   64.5660 C   0  0  0  0  0  0  0  0  0  0  0  0
    1.0990   68.2740   62.4690 C   0  0  1  0  0  0  0  0  0  0  0  0
   -0.3180   68.4030   62.3820 O   0  0  0  0  0  0  0  0  0  0  0  0
    1.7830   69.0050   61.3040 C   0  0  0  0  0  0  0  0  0  0  0  0
    3.2990   68.7870   61.2400 C   0  0  2  0  0  0  0  0  0  0  0  0
    3.7930   69.3730   60.0310 O   0  0  0  0  0  0  0  0  0  0  0  0
    3.6410   67.3010   61.2890 C   0  0  0  0  0  0  0  0  0  0  0  0
    4.9150   66.0150   62.8010 O   0  0  0  0  0  1  0  0  0  0  0  0
    4.8780   67.0980   62.1590 C   0  0  0  0  0  0  0  0  0  0  0  0
    5.7200   68.0460   62.1140 O   0  0  0  0  0  0  0  0  0  0  0  0
    6.2317   70.8441   67.3773 H   0  0  0  0  0  0  0  0  0  0  0  0
    5.9028   71.6204   69.7325 H   0  0  0  0  0  0  0  0  0  0  0  0
    3.7752   71.1696   70.9233 H   0  0  0  0  0  0  0  0  0  0  0  0
    1.9306   69.9377   69.7795 H   0  0  0  0  0  0  0  0  0  0  0  0
    1.4558   66.8375   68.4660 H   0  0  0  0  0  0  0  0  0  0  0  0
   -0.8792   66.0452   68.8716 H   0  0  0  0  0  0  0  0  0  0  0  0
   -2.4067   69.2894   66.4601 H   0  0  0  0  0  0  0  0  0  0  0  0
   -0.0761   70.0894   66.0514 H   0  0  0  0  0  0  0  0  0  0  0  0
    4.7866   69.4040   64.0419 H   0  0  0  0  0  0  0  0  0  0  0  0
    6.2990   70.9956   66.0782 H   0  0  0  0  0  0  0  0  0  0  0  0
    7.0578   70.5150   64.5226 H   0  0  0  0  0  0  0  0  0  0  0  0
    5.5502   71.4916   64.5226 H   0  0  0  0  0  0  0  0  0  0  0  0
    6.3087   67.9052   66.1853 H   0  0  0  0  0  0  0  0  0  0  0  0
    5.6262   67.3131   64.6328 H   0  0  0  0  0  0  0  0  0  0  0  0
    7.1035   68.3349   64.6328 H   0  0  0  0  0  0  0  0  0  0  0  0
    1.1322   69.7510   64.1466 H   0  0  0  0  0  0  0  0  0  0  0  0
    3.0219   67.3296   64.2322 H   0  0  0  0  0  0  0  0  0  0  0  0
    1.3592   67.2072   62.4042 H   0  0  0  0  0  0  0  0  0  0  0  0
   -0.7028   68.4380   63.2935 H   0  0  0  0  0  0  0  0  0  0  0  0
    1.3412   68.6463   60.3626 H   0  0  0  0  0  0  0  0  0  0  0  0
    1.6211   70.0814   61.4626 H   0  0  0  0  0  0  0  0  0  0  0  0
    3.7730   69.2641   62.1105 H   0  0  0  0  0  0  0  0  0  0  0  0
    4.4150   70.1108   60.2520 H   0  0  0  0  0  0  0  0  0  0  0  0
    2.7951   66.7429   61.7167 H   0  0  0  0  0  0  0  0  0  0  0  0
    3.8414   66.9347   60.2713 H   0  0  0  0  0  0  0  0  0  0  0  0
  2  1  2  0
  3  2  1  0
  4  3  2  0
  5  4  1  0
  5  1  1  0
  6  4  1  0
  7  6  2  0
  8  7  1  0
  9  3  1  0
  9  8  2  0
 10  2  1  0
 11 10  2  0
 12 11  1  0
 13 12  2  0
 14 13  1  0
 15 14  2  0
 15 10  1  0
 16 13  1  0
 17  5  1  0
 18 17  1  0
 19 17  1  0
 21 20  2  0
 21  1  1  0
 22 20  1  0
 23 22  1  0
 24 22  1  0
 25 24  1  0
 26 25  1  0
 27 25  1  0
 29 27  1  0
 29 28  1  0
 30 29  2  0
  6 31  1  0
  7 32  1  0
  8 33  1  0
  9 34  1  0
 11 35  1  0
 12 36  1  0
 14 37  1  0
 15 38  1  0
 17 39  1  0
 18 40  1  0
 18 41  1  0
 18 42  1  0
 19 43  1  0
 19 44  1  0
 19 45  1  0
 20 46  1  0
 21 47  1  0
 22 48  1  1
 23 49  1  0
 24 50  1  0
 24 51  1  0
 25 52  1  1
 26 53  1  0
 27 54  1  0
 27 55  1  0
M  CHG  1  28  -1
M  END
>  <score>  (9) 
-8.937

$$$$
