=
     RDKit          3D

 33 35  0  0  0  0  0  0  0  0999 V2000
   -0.3170   68.9640   67.3970 Cl  0  0  0  0  0  0  0  0  0  0  0  0
    0.9630   68.3600   66.4210 C   0  0  0  0  0  0  0  0  0  0  0  0
    0.8380   67.1240   65.8030 C   0  0  0  0  0  0  0  0  0  0  0  0
    1.8750   66.6390   64.9990 C   0  0  0  0  0  0  0  0  0  0  0  0
    3.0550   67.3820   64.7940 C   0  0  0  0  0  0  0  0  0  0  0  0
    3.1810   68.6100   65.4750 C   0  0  0  0  0  0  0  0  0  0  0  0
    2.1250   69.1050   66.2620 C   0  0  0  0  0  0  0  0  0  0  0  0
    4.4420   69.4080   65.4550 C   0  0  0  0  0  0  0  0  0  0  0  0
    5.0940   69.7010   64.3810 N   0  0  0  0  0  0  0  0  0  0  0  0
    4.6030   69.1650   63.1150 C   0  0  0  0  0  0  0  0  0  0  0  0
    4.8450   67.6630   63.0760 C   0  0  0  0  0  0  0  0  0  0  0  0
    5.6560   67.1820   62.2790 O   0  0  0  0  0  0  0  0  0  0  0  0
    4.0580   66.8630   63.9160 N   0  0  0  0  0  0  0  0  0  0  0  0
    4.1700   65.4230   63.7340 C   0  0  0  0  0  0  0  0  0  0  0  0
    4.9960   69.9140   66.7530 C   0  0  0  0  0  0  0  0  0  0  0  0
    4.1670   70.1330   67.8610 C   0  0  0  0  0  0  0  0  0  0  0  0
    4.7130   70.6050   69.0560 C   0  0  0  0  0  0  0  0  0  0  0  0
    6.0840   70.8480   69.1530 C   0  0  0  0  0  0  0  0  0  0  0  0
    6.9130   70.6130   68.0580 C   0  0  0  0  0  0  0  0  0  0  0  0
    6.3730   70.1410   66.8600 C   0  0  0  0  0  0  0  0  0  0  0  0
   -0.0747   66.5267   65.9450 H   0  0  0  0  0  0  0  0  0  0  0  0
    1.7671   65.6565   64.5163 H   0  0  0  0  0  0  0  0  0  0  0  0
    2.2196   70.0848   66.7529 H   0  0  0  0  0  0  0  0  0  0  0  0
    3.5253   69.3659   63.0244 H   0  0  0  0  0  0  0  0  0  0  0  0
    5.1352   69.6454   62.2808 H   0  0  0  0  0  0  0  0  0  0  0  0
    4.2083   64.9310   64.7171 H   0  0  0  0  0  0  0  0  0  0  0  0
    3.2977   65.0553   63.1737 H   0  0  0  0  0  0  0  0  0  0  0  0
    5.0886   65.1946   63.1737 H   0  0  0  0  0  0  0  0  0  0  0  0
    3.0876   69.9334   67.7895 H   0  0  0  0  0  0  0  0  0  0  0  0
    4.0611   70.7859   69.9233 H   0  0  0  0  0  0  0  0  0  0  0  0
    6.5102   71.2252   70.0943 H   0  0  0  0  0  0  0  0  0  0  0  0
    7.9942   70.7995   68.1374 H   0  0  0  0  0  0  0  0  0  0  0  0
    7.0303   69.9474   65.9995 H   0  0  0  0  0  0  0  0  0  0  0  0
  2  1  1  0
  3  2  2  0
  4  3  1  0
  5  4  2  0
  6  5  1  0
  7  6  2  0
  7  2  1  0
  8  6  1  0
  9  8  2  0
 10  9  1  0
 11 10  1  0
 12 11  2  0
 13 11  1  0
 13  5  1  0
 14 13  1  0
 15  8  1  0
 16 15  2  0
 17 16  1  0
 18 17  2  0
 19 18  1  0
 20 15  1  0
 20 19  2  0
  3 21  1  0
  4 22  1  0
  7 23  1  0
 10 24  1  0
 10 25  1  0
 14 26  1  0
 14 27  1  0
 14 28  1  0
 16 29  1  0
 17 30  1  0
 18 31  1  0
 19 32  1  0
 20 33  1  0
M  END
>  <score>  (1) 
-11.314

$$$$
=
     RDKit          3D

 33 35  0  0  0  0  0  0  0  0999 V2000
    3.8080   70.5670   69.0780 Cl  0  0  0  0  0  0  0  0  0  0  0  0
    3.8860   69.8110   67.5360 C   0  0  0  0  0  0  0  0  0  0  0  0
    4.8750   70.1780   66.6340 C   0  0  0  0  0  0  0  0  0  0  0  0
    4.9450   69.5520   65.3850 C   0  0  0  0  0  0  0  0  0  0  0  0
    4.0300   68.5470   65.0130 C   0  0  0  0  0  0  0  0  0  0  0  0
    3.0020   68.2290   65.9250 C   0  0  0  0  0  0  0  0  0  0  0  0
    2.9510   68.8420   67.1900 C   0  0  0  0  0  0  0  0  0  0  0  0
    1.8920   67.2930   65.5810 C   0  0  0  0  0  0  0  0  0  0  0  0
    2.0670   66.1280   65.0550 N   0  0  0  0  0  0  0  0  0  0  0  0
    3.4290   65.7290   64.7170 C   0  0  0  0  0  0  0  0  0  0  0  0
    3.9130   66.5450   63.5260 C   0  0  0  0  0  0  0  0  0  0  0  0
    4.1200   65.9990   62.4380 O   0  0  0  0  0  0  0  0  0  0  0  0
    4.1840   67.9020   63.7460 N   0  0  0  0  0  0  0  0  0  0  0  0
    4.8200   68.6230   62.6520 C   0  0  0  0  0  0  0  0  0  0  0  0
    0.4810   67.7130   65.8640 C   0  0  0  0  0  0  0  0  0  0  0  0
   -0.1850   68.6270   65.0380 C   0  0  0  0  0  0  0  0  0  0  0  0
   -1.5000   68.9980   65.3280 C   0  0  0  0  0  0  0  0  0  0  0  0
   -2.1550   68.4510   66.4330 C   0  0  0  0  0  0  0  0  0  0  0  0
   -1.5010   67.5260   67.2450 C   0  0  0  0  0  0  0  0  0  0  0  0
   -0.1870   67.1520   66.9600 C   0  0  0  0  0  0  0  0  0  0  0  0
    5.6020   70.9592   66.9007 H   0  0  0  0  0  0  0  0  0  0  0  0
    5.7321   69.8510   64.6772 H   0  0  0  0  0  0  0  0  0  0  0  0
    2.1689   68.5538   67.9078 H   0  0  0  0  0  0  0  0  0  0  0  0
    4.0890   65.9095   65.5783 H   0  0  0  0  0  0  0  0  0  0  0  0
    3.4463   64.6592   64.4615 H   0  0  0  0  0  0  0  0  0  0  0  0
    5.4954   69.3887   63.0612 H   0  0  0  0  0  0  0  0  0  0  0  0
    5.3960   67.9183   62.0343 H   0  0  0  0  0  0  0  0  0  0  0  0
    4.0489   69.1066   62.0343 H   0  0  0  0  0  0  0  0  0  0  0  0
    0.3268   69.0522   64.1620 H   0  0  0  0  0  0  0  0  0  0  0  0
   -2.0206   69.7225   64.6845 H   0  0  0  0  0  0  0  0  0  0  0  0
   -3.1882   68.7503   66.6630 H   0  0  0  0  0  0  0  0  0  0  0  0
   -2.0209   67.0905   68.1110 H   0  0  0  0  0  0  0  0  0  0  0  0
    0.3249   66.4156   67.5970 H   0  0  0  0  0  0  0  0  0  0  0  0
  2  1  1  0
  3  2  2  0
  4  3  1  0
  5  4  2  0
  6  5  1  0
  7  6  2  0
  7  2  1  0
  8  6  1  0
  9  8  2  0
 10  9  1  0
 11 10  1  0
 12 11  2  0
 13 11  1  0
 13  5  1  0
 14 13  1  0
 15  8  1  0
 16 15  2  0
 17 16  1  0
 18 17  2  0
 19 18  1  0
 20 15  1  0
 20 19  2  0
  3 21  1  0
  4 22  1  0
  7 23  1  0
 10 24  1  0
 10 25  1  0
 14 26  1  0
 14 27  1  0
 14 28  1  0
 16 29  1  0
 17 30  1  0
 18 31  1  0
 19 32  1  0
 20 33  1  0
M  END
>  <score>  (2) 
-10.73

$$$$
=
     RDKit          3D

 33 35  0  0  0  0  0  0  0  0999 V2000
    5.6020   70.1320   67.3950 Cl  0  0  0  0  0  0  0  0  0  0  0  0
    3.9630   69.6820   67.1370 C   0  0  0  0  0  0  0  0  0  0  0  0
    3.0010   70.0010   68.0850 C   0  0  0  0  0  0  0  0  0  0  0  0
    1.6650   69.6460   67.8670 C   0  0  0  0  0  0  0  0  0  0  0  0
    1.2650   68.9680   66.6980 C   0  0  0  0  0  0  0  0  0  0  0  0
    2.2690   68.6080   65.7760 C   0  0  0  0  0  0  0  0  0  0  0  0
    3.6070   68.9900   65.9860 C   0  0  0  0  0  0  0  0  0  0  0  0
    1.9870   67.7590   64.5810 C   0  0  0  0  0  0  0  0  0  0  0  0
    1.0180   67.9720   63.7560 N   0  0  0  0  0  0  0  0  0  0  0  0
    0.1040   69.0720   64.0460 C   0  0  0  0  0  0  0  0  0  0  0  0
   -0.7540   68.7100   65.2510 C   0  0  0  0  0  0  0  0  0  0  0  0
   -1.9670   68.5250   65.1210 O   0  0  0  0  0  0  0  0  0  0  0  0
   -0.1220   68.6810   66.5020 N   0  0  0  0  0  0  0  0  0  0  0  0
   -0.9870   68.5170   67.6620 C   0  0  0  0  0  0  0  0  0  0  0  0
    2.8800   66.5870   64.3020 C   0  0  0  0  0  0  0  0  0  0  0  0
    3.8830   66.6540   63.3270 C   0  0  0  0  0  0  0  0  0  0  0  0
    4.6990   65.5450   63.0900 C   0  0  0  0  0  0  0  0  0  0  0  0
    4.5240   64.3760   63.8310 C   0  0  0  0  0  0  0  0  0  0  0  0
    3.5400   64.3140   64.8160 C   0  0  0  0  0  0  0  0  0  0  0  0
    2.7210   65.4180   65.0560 C   0  0  0  0  0  0  0  0  0  0  0  0
    3.2878   70.5313   69.0051 H   0  0  0  0  0  0  0  0  0  0  0  0
    0.9101   69.9019   68.6251 H   0  0  0  0  0  0  0  0  0  0  0  0
    4.3729   68.7401   65.2371 H   0  0  0  0  0  0  0  0  0  0  0  0
    0.6821   69.9815   64.2666 H   0  0  0  0  0  0  0  0  0  0  0  0
   -0.5425   69.2530   63.1747 H   0  0  0  0  0  0  0  0  0  0  0  0
   -0.3931   68.6296   68.5811 H   0  0  0  0  0  0  0  0  0  0  0  0
   -1.7779   69.2812   67.6406 H   0  0  0  0  0  0  0  0  0  0  0  0
   -1.4433   67.5163   67.6406 H   0  0  0  0  0  0  0  0  0  0  0  0
    4.0282   67.5784   62.7486 H   0  0  0  0  0  0  0  0  0  0  0  0
    5.4808   65.5937   62.3178 H   0  0  0  0  0  0  0  0  0  0  0  0
    5.1635   63.5021   63.6376 H   0  0  0  0  0  0  0  0  0  0  0  0
    3.4089   63.3941   65.4047 H   0  0  0  0  0  0  0  0  0  0  0  0
    1.9495   65.3698   65.8386 H   0  0  0  0  0  0  0  0  0  0  0  0
  2  1  1  0
  3  2  2  0
  4  3  1  0
  5  4  2  0
  6  5  1  0
  7  6  2  0
  7  2  1  0
  8  6  1  0
  9  8  2  0
 10  9  1  0
 11 10  1  0
 12 11  2  0
 13 11  1  0
 13  5  1  0
 14 13  1  0
 15  8  1  0
 16 15  2  0
 17 16  1  0
 18 17  2  0
 19 18  1  0
 20 15  1  0
 20 19  2  0
  3 21  1  0
  4 22  1  0
  7 23  1  0
 10 24  1  0
 10 25  1  0
 14 26  1  0
 14 27  1  0
 14 28  1  0
 16 29  1  0
 17 30  1  0
 18 31  1  0
 19 32  1  0
 20 33  1  0
M  END
>  <score>  (3) 
-10.708

$$$$
=
     RDKit          3D

 33 35  0  0  0  0  0  0  0  0999 V2000
    3.3940   68.7270   62.1890 Cl  0  0  0  0  0  0  0  0  0  0  0  0
    2.1160   68.6920   63.3390 C   0  0  0  0  0  0  0  0  0  0  0  0
    0.8030   68.8440   62.9180 C   0  0  0  0  0  0  0  0  0  0  0  0
   -0.2370   68.8020   63.8530 C   0  0  0  0  0  0  0  0  0  0  0  0
    0.0150   68.6070   65.2260 C   0  0  0  0  0  0  0  0  0  0  0  0
    1.3610   68.5090   65.6350 C   0  0  0  0  0  0  0  0  0  0  0  0
    2.4020   68.5250   64.6880 C   0  0  0  0  0  0  0  0  0  0  0  0
    1.7540   68.4530   67.0740 C   0  0  0  0  0  0  0  0  0  0  0  0
    1.2190   67.6590   67.9380 N   0  0  0  0  0  0  0  0  0  0  0  0
    0.1170   66.8100   67.4960 C   0  0  0  0  0  0  0  0  0  0  0  0
   -1.1130   67.6710   67.2470 C   0  0  0  0  0  0  0  0  0  0  0  0
   -2.1080   67.5640   67.9710 O   0  0  0  0  0  0  0  0  0  0  0  0
   -1.0900   68.5150   66.1290 N   0  0  0  0  0  0  0  0  0  0  0  0
   -2.3370   69.1910   65.7980 C   0  0  0  0  0  0  0  0  0  0  0  0
    2.8430   69.3620   67.5590 C   0  0  0  0  0  0  0  0  0  0  0  0
    2.7070   70.0880   68.7490 C   0  0  0  0  0  0  0  0  0  0  0  0
    3.7390   70.9270   69.1750 C   0  0  0  0  0  0  0  0  0  0  0  0
    4.9100   71.0330   68.4250 C   0  0  0  0  0  0  0  0  0  0  0  0
    5.0570   70.2960   67.2510 C   0  0  0  0  0  0  0  0  0  0  0  0
    4.0280   69.4570   66.8200 C   0  0  0  0  0  0  0  0  0  0  0  0
    0.5800   68.9972   61.8518 H   0  0  0  0  0  0  0  0  0  0  0  0
   -1.2746   68.9239   63.5088 H   0  0  0  0  0  0  0  0  0  0  0  0
    3.4448   68.4050   65.0170 H   0  0  0  0  0  0  0  0  0  0  0  0
    0.3998   66.2956   66.5657 H   0  0  0  0  0  0  0  0  0  0  0  0
   -0.1070   66.0633   68.2721 H   0  0  0  0  0  0  0  0  0  0  0  0
   -2.8581   69.4735   66.7246 H   0  0  0  0  0  0  0  0  0  0  0  0
   -2.1193   70.0946   65.2097 H   0  0  0  0  0  0  0  0  0  0  0  0
   -2.9754   68.5154   65.2097 H   0  0  0  0  0  0  0  0  0  0  0  0
    1.7884   69.9975   69.3474 H   0  0  0  0  0  0  0  0  0  0  0  0
    3.6280   71.5054   70.1040 H   0  0  0  0  0  0  0  0  0  0  0  0
    5.7187   71.6991   68.7603 H   0  0  0  0  0  0  0  0  0  0  0  0
    5.9840   70.3756   66.6641 H   0  0  0  0  0  0  0  0  0  0  0  0
    4.1486   68.8694   65.8979 H   0  0  0  0  0  0  0  0  0  0  0  0
  2  1  1  0
  3  2  2  0
  4  3  1  0
  5  4  2  0
  6  5  1  0
  7  6  2  0
  7  2  1  0
  8  6  1  0
  9  8  2  0
 10  9  1  0
 11 10  1  0
 12 11  2  0
 13 11  1  0
 13  5  1  0
 14 13  1  0
 15  8  1  0
 16 15  2  0
 17 16  1  0
 18 17  2  0
 19 18  1  0
 20 15  1  0
 20 19  2  0
  3 21  1  0
  4 22  1  0
  7 23  1  0
 10 24  1  0
 10 25  1  0
 14 26  1  0
 14 27  1  0
 14 28  1  0
 16 29  1  0
 17 30  1  0
 18 31  1  0
 19 32  1  0
 20 33  1  0
M  END
>  <score>  (4) 
-10.174

$$$$
