=
     RDKit          3D

 82 87  0  0  0  0  0  0  0  0999 V2000
   -1.8900   68.1860   66.4150 C   0  0  0  0  0  0  0  0  0  0  0  0
   -0.6800   69.1220   66.3050 C   0  0  0  0  0  0  0  0  0  0  0  0
    0.2770   68.8090   65.1520 C   0  0  0  0  0  0  0  0  0  0  0  0
    1.3450   67.9010   65.5870 N   0  0  0  0  0  0  0  0  0  0  0  0
    4.7470   70.4930   67.9390 C   0  0  0  0  0  0  0  0  0  0  0  0
    4.0490   70.4840   69.1520 C   0  0  0  0  0  0  0  0  0  0  0  0
    2.8340   69.8250   69.2050 C   0  0  0  0  0  0  0  0  0  0  0  0
    2.3520   69.1920   68.0570 C   0  0  0  0  0  0  0  0  0  0  0  0
    3.0700   69.1960   66.8270 C   0  0  0  0  0  0  0  0  0  0  0  0
    4.3080   69.8790   66.7670 C   0  0  0  0  0  0  0  0  0  0  0  0
    5.0310   69.9520   65.6310 N   0  0  0  0  0  0  0  0  0  0  0  0
    4.5710   69.3460   64.5190 C   0  0  0  0  0  0  0  0  0  0  0  0
    5.3840   69.4770   63.2580 C   0  0  0  0  0  0  0  0  0  0  0  0
    5.5000   68.1320   62.5480 C   0  0  0  0  0  0  0  0  0  0  0  0
    4.1820   67.3480   62.4680 C   0  0  0  0  0  0  0  0  0  0  0  0
    2.9880   68.0250   63.1480 C   0  0  0  0  0  0  0  0  0  0  0  0
    3.3770   68.6350   64.4690 C   0  0  0  0  0  0  0  0  0  0  0  0
    2.6090   68.5520   65.6400 C   0  0  0  0  0  0  0  0  0  0  0  0
    5.9580   72.4320   68.0080 O   0  0  0  0  0  1  0  0  0  0  0  0
    6.0040   71.1970   67.9090 N   0  0  0  0  0  4  0  0  0  0  0  0
    7.0340   70.5080   67.8820 O   0  0  0  0  0  0  0  0  0  0  0  0
   -1.8150   67.0890   67.4800 C   0  0  0  0  0  0  0  0  0  0  0  0
   -0.6100   67.1580   68.4250 C   0  0  0  0  0  0  0  0  0  0  0  0
   -0.3330   65.8900   69.2380 C   0  0  0  0  0  0  0  0  0  0  0  0
    0.5090   66.0800   70.5030 C   0  0  0  0  0  0  0  0  0  0  0  0
    0.4270   64.8970   71.4710 C   0  0  0  0  0  0  0  0  0  0  0  0
    0.2500   63.6220   70.7590 N   0  0  0  0  0  0  0  0  0  0  0  0
    0.9860   62.5320   71.2870 C   0  0  0  0  0  0  0  0  0  0  0  0
    2.3180   62.3050   70.9040 C   0  0  0  0  0  0  0  0  0  0  0  0
    3.1260   63.1810   69.9800 C   0  0  0  0  0  0  0  0  0  0  0  0
    4.5590   63.3670   70.4880 C   0  0  0  0  0  0  0  0  0  0  0  0
    5.2210   62.0910   71.0230 C   0  0  0  0  0  0  0  0  0  0  0  0
    4.3470   60.8460   70.9060 C   0  0  0  0  0  0  0  0  0  0  0  0
    2.9400   61.1390   71.3620 C   0  0  0  0  0  0  0  0  0  0  0  0
    2.3480   60.2290   72.1610 N   0  0  0  0  0  0  0  0  0  0  0  0
    1.0910   60.4620   72.5620 C   0  0  0  0  0  0  0  0  0  0  0  0
    0.3570   61.5990   72.1620 C   0  0  0  0  0  0  0  0  0  0  0  0
   -0.9530   61.7670   72.6760 C   0  0  0  0  0  0  0  0  0  0  0  0
   -1.5290   60.8270   73.5290 C   0  0  0  0  0  0  0  0  0  0  0  0
   -0.8030   59.7040   73.8930 C   0  0  0  0  0  0  0  0  0  0  0  0
    0.4960   59.5370   73.4100 C   0  0  0  0  0  0  0  0  0  0  0  0
   -2.7718   68.8054   66.6358 H   0  0  0  0  0  0  0  0  0  0  0  0
   -1.9323   67.6535   65.4534 H   0  0  0  0  0  0  0  0  0  0  0  0
   -1.0533   70.1479   66.1698 H   0  0  0  0  0  0  0  0  0  0  0  0
   -0.1012   68.9864   67.2305 H   0  0  0  0  0  0  0  0  0  0  0  0
   -0.2870   68.3357   64.3347 H   0  0  0  0  0  0  0  0  0  0  0  0
    0.7339   69.7495   64.8105 H   0  0  0  0  0  0  0  0  0  0  0  0
    1.1970   66.9100   65.8256 H   0  0  0  0  0  0  0  0  0  0  0  0
    4.4563   70.9882   70.0407 H   0  0  0  0  0  0  0  0  0  0  0  0
    2.2546   69.7998   70.1397 H   0  0  0  0  0  0  0  0  0  0  0  0
    1.3838   68.6721   68.1046 H   0  0  0  0  0  0  0  0  0  0  0  0
    4.8952   70.1985   62.5868 H   0  0  0  0  0  0  0  0  0  0  0  0
    6.3934   69.8248   63.5230 H   0  0  0  0  0  0  0  0  0  0  0  0
    5.8572   68.3122   61.5233 H   0  0  0  0  0  0  0  0  0  0  0  0
    6.1967   67.5205   63.1401 H   0  0  0  0  0  0  0  0  0  0  0  0
    3.9340   67.2035   61.4061 H   0  0  0  0  0  0  0  0  0  0  0  0
    4.3506   66.4043   63.0074 H   0  0  0  0  0  0  0  0  0  0  0  0
    2.6029   68.8167   62.4885 H   0  0  0  0  0  0  0  0  0  0  0  0
    2.2186   67.2612   63.3342 H   0  0  0  0  0  0  0  0  0  0  0  0
   -2.7274   67.1493   68.0915 H   0  0  0  0  0  0  0  0  0  0  0  0
   -1.7081   66.1435   66.9280 H   0  0  0  0  0  0  0  0  0  0  0  0
    0.2828   67.3737   67.8197 H   0  0  0  0  0  0  0  0  0  0  0  0
   -0.8487   67.9406   69.1602 H   0  0  0  0  0  0  0  0  0  0  0  0
   -1.3014   65.4632   69.5381 H   0  0  0  0  0  0  0  0  0  0  0  0
    0.2592   65.2368   68.5803 H   0  0  0  0  0  0  0  0  0  0  0  0
    1.5594   66.2152   70.2057 H   0  0  0  0  0  0  0  0  0  0  0  0
    0.1097   66.9592   71.0299 H   0  0  0  0  0  0  0  0  0  0  0  0
    1.3564   64.8515   72.0577 H   0  0  0  0  0  0  0  0  0  0  0  0
   -0.4449   65.0486   72.1243 H   0  0  0  0  0  0  0  0  0  0  0  0
   -0.3637   63.5283   69.9371 H   0  0  0  0  0  0  0  0  0  0  0  0
    3.1581   62.7151   68.9840 H   0  0  0  0  0  0  0  0  0  0  0  0
    2.6457   64.1697   69.9364 H   0  0  0  0  0  0  0  0  0  0  0  0
    5.1705   63.7473   69.6564 H   0  0  0  0  0  0  0  0  0  0  0  0
    4.4994   64.0647   71.3363 H   0  0  0  0  0  0  0  0  0  0  0  0
    6.1480   61.9180   70.4566 H   0  0  0  0  0  0  0  0  0  0  0  0
    5.4055   62.2523   72.0954 H   0  0  0  0  0  0  0  0  0  0  0  0
    4.3255   60.5170   69.8566 H   0  0  0  0  0  0  0  0  0  0  0  0
    4.7689   60.0559   71.5446 H   0  0  0  0  0  0  0  0  0  0  0  0
   -1.5292   62.6609   72.3950 H   0  0  0  0  0  0  0  0  0  0  0  0
   -2.5503   60.9752   73.9097 H   0  0  0  0  0  0  0  0  0  0  0  0
   -1.2475   58.9491   74.5582 H   0  0  0  0  0  0  0  0  0  0  0  0
    1.0659   58.6453   73.7103 H   0  0  0  0  0  0  0  0  0  0  0  0
  2  1  1  0
  3  2  1  0
  4  3  1  0
  6  5  2  0
  7  6  1  0
  8  7  2  0
  9  8  1  0
 10  9  2  0
 10  5  1  0
 11 10  1  0
 12 11  2  0
 13 12  1  0
 14 13  1  0
 15 14  1  0
 16 15  1  0
 17 16  1  0
 17 12  1  0
 18 17  2  0
 18  9  1  0
 18  4  1  0
 20  5  1  0
 20 19  1  0
 21 20  2  0
 22  1  1  0
 23 22  1  0
 24 23  1  0
 25 24  1  0
 26 25  1  0
 27 26  1  0
 28 27  1  0
 29 28  1  0
 30 29  1  0
 31 30  1  0
 32 31  1  0
 33 32  1  0
 34 33  1  0
 34 29  2  0
 35 34  1  0
 36 35  2  0
 37 36  1  0
 37 28  2  0
 38 37  1  0
 39 38  2  0
 40 39  1  0
 41 40  2  0
 41 36  1  0
  1 42  1  0
  1 43  1  0
  2 44  1  0
  2 45  1  0
  3 46  1  0
  3 47  1  0
  4 48  1  0
  6 49  1  0
  7 50  1  0
  8 51  1  0
 13 52  1  0
 13 53  1  0
 14 54  1  0
 14 55  1  0
 15 56  1  0
 15 57  1  0
 16 58  1  0
 16 59  1  0
 22 60  1  0
 22 61  1  0
 23 62  1  0
 23 63  1  0
 24 64  1  0
 24 65  1  0
 25 66  1  0
 25 67  1  0
 26 68  1  0
 26 69  1  0
 27 70  1  0
 30 71  1  0
 30 72  1  0
 31 73  1  0
 31 74  1  0
 32 75  1  0
 32 76  1  0
 33 77  1  0
 33 78  1  0
 38 79  1  0
 39 80  1  0
 40 81  1  0
 41 82  1  0
M  CHG  2  19  -1  20   1
M  END
>  <score>  (1) 
-12.993

$$$$
=
     RDKit          3D

 82 87  0  0  0  0  0  0  0  0999 V2000
    0.1780   65.2650   70.6940 C   0  0  0  0  0  0  0  0  0  0  0  0
    0.0450   65.0980   72.2120 C   0  0  0  0  0  0  0  0  0  0  0  0
    0.4070   63.7100   72.7450 C   0  0  0  0  0  0  0  0  0  0  0  0
    0.0440   62.6660   71.7800 N   0  0  0  0  0  0  0  0  0  0  0  0
    0.8760   58.2690   73.7290 C   0  0  0  0  0  0  0  0  0  0  0  0
   -0.3540   58.2290   74.3950 C   0  0  0  0  0  0  0  0  0  0  0  0
   -1.2130   59.3030   74.2530 C   0  0  0  0  0  0  0  0  0  0  0  0
   -0.8300   60.3810   73.4520 C   0  0  0  0  0  0  0  0  0  0  0  0
    0.4200   60.4140   72.7680 C   0  0  0  0  0  0  0  0  0  0  0  0
    1.3060   59.3210   72.9210 C   0  0  0  0  0  0  0  0  0  0  0  0
    2.5170   59.2930   72.3290 N   0  0  0  0  0  0  0  0  0  0  0  0
    2.8950   60.3310   71.5570 C   0  0  0  0  0  0  0  0  0  0  0  0
    4.2690   60.2850   70.9410 C   0  0  0  0  0  0  0  0  0  0  0  0
    4.2180   60.7090   69.4760 C   0  0  0  0  0  0  0  0  0  0  0  0
    3.3590   61.9540   69.2120 C   0  0  0  0  0  0  0  0  0  0  0  0
    2.6670   62.5330   70.4500 C   0  0  0  0  0  0  0  0  0  0  0  0
    2.1000   61.4460   71.3260 C   0  0  0  0  0  0  0  0  0  0  0  0
    0.8380   61.4950   71.9360 C   0  0  0  0  0  0  0  0  0  0  0  0
    2.3610   57.0650   74.9840 O   0  0  0  0  0  1  0  0  0  0  0  0
    1.7560   57.1420   73.9050 N   0  0  0  0  0  4  0  0  0  0  0  0
    1.7670   56.2910   73.0040 O   0  0  0  0  0  0  0  0  0  0  0  0
    1.3960   66.0470   70.1920 C   0  0  0  0  0  0  0  0  0  0  0  0
    1.1180   67.0820   69.0970 C   0  0  0  0  0  0  0  0  0  0  0  0
   -0.2590   66.9910   68.4340 C   0  0  0  0  0  0  0  0  0  0  0  0
   -0.2970   67.2900   66.9320 C   0  0  0  0  0  0  0  0  0  0  0  0
    1.0920   67.3800   66.2960 C   0  0  0  0  0  0  0  0  0  0  0  0
    1.3870   68.7400   65.8200 N   0  0  0  0  0  0  0  0  0  0  0  0
    2.7640   69.0560   65.7190 C   0  0  0  0  0  0  0  0  0  0  0  0
    3.4920   68.7640   64.5540 C   0  0  0  0  0  0  0  0  0  0  0  0
    2.9220   68.1680   63.2910 C   0  0  0  0  0  0  0  0  0  0  0  0
    3.4880   68.8470   62.0400 C   0  0  0  0  0  0  0  0  0  0  0  0
    4.9970   69.1180   62.0850 C   0  0  0  0  0  0  0  0  0  0  0  0
    5.6790   68.6130   63.3530 C   0  0  0  0  0  0  0  0  0  0  0  0
    4.8720   68.9830   64.5720 C   0  0  0  0  0  0  0  0  0  0  0  0
    5.5470   69.4720   65.6330 N   0  0  0  0  0  0  0  0  0  0  0  0
    4.8520   69.7900   66.7330 C   0  0  0  0  0  0  0  0  0  0  0  0
    3.4560   69.6090   66.8370 C   0  0  0  0  0  0  0  0  0  0  0  0
    2.8130   70.0140   68.0330 C   0  0  0  0  0  0  0  0  0  0  0  0
    3.5310   70.5500   69.1020 C   0  0  0  0  0  0  0  0  0  0  0  0
    4.9040   70.7000   68.9920 C   0  0  0  0  0  0  0  0  0  0  0  0
    5.5460   70.3220   67.8110 C   0  0  0  0  0  0  0  0  0  0  0  0
    0.2217   64.2593   70.2506 H   0  0  0  0  0  0  0  0  0  0  0  0
   -0.6943   65.8630   70.3914 H   0  0  0  0  0  0  0  0  0  0  0  0
    0.7066   65.8321   72.6951 H   0  0  0  0  0  0  0  0  0  0  0  0
   -1.0194   65.2485   72.4453 H   0  0  0  0  0  0  0  0  0  0  0  0
    1.4903   63.6672   72.9310 H   0  0  0  0  0  0  0  0  0  0  0  0
   -0.1508   63.5356   73.6769 H   0  0  0  0  0  0  0  0  0  0  0  0
   -0.6980   62.7684   71.0730 H   0  0  0  0  0  0  0  0  0  0  0  0
   -0.6307   57.3644   75.0162 H   0  0  0  0  0  0  0  0  0  0  0  0
   -2.1866   59.3083   74.7649 H   0  0  0  0  0  0  0  0  0  0  0  0
   -1.5165   61.2338   73.3453 H   0  0  0  0  0  0  0  0  0  0  0  0
    4.9343   60.9666   71.4912 H   0  0  0  0  0  0  0  0  0  0  0  0
    4.6475   59.2537   70.9976 H   0  0  0  0  0  0  0  0  0  0  0  0
    5.2445   60.9206   69.1419 H   0  0  0  0  0  0  0  0  0  0  0  0
    3.7528   59.8801   68.9224 H   0  0  0  0  0  0  0  0  0  0  0  0
    4.0084   62.7337   68.7872 H   0  0  0  0  0  0  0  0  0  0  0  0
    2.5568   61.6369   68.5295 H   0  0  0  0  0  0  0  0  0  0  0  0
    3.3995   63.1135   71.0300 H   0  0  0  0  0  0  0  0  0  0  0  0
    1.8376   63.1725   70.1138 H   0  0  0  0  0  0  0  0  0  0  0  0
    1.8362   66.5744   71.0511 H   0  0  0  0  0  0  0  0  0  0  0  0
    2.0632   65.3009   69.7358 H   0  0  0  0  0  0  0  0  0  0  0  0
    1.2123   68.0822   69.5451 H   0  0  0  0  0  0  0  0  0  0  0  0
    1.8491   66.8804   68.3003 H   0  0  0  0  0  0  0  0  0  0  0  0
   -0.6392   65.9698   68.5845 H   0  0  0  0  0  0  0  0  0  0  0  0
   -0.8716   67.7712   68.9094 H   0  0  0  0  0  0  0  0  0  0  0  0
   -0.8589   66.4881   66.4308 H   0  0  0  0  0  0  0  0  0  0  0  0
   -0.7757   68.2726   66.8080 H   0  0  0  0  0  0  0  0  0  0  0  0
    1.8456   67.0932   67.0442 H   0  0  0  0  0  0  0  0  0  0  0  0
    1.1166   66.7016   65.4304 H   0  0  0  0  0  0  0  0  0  0  0  0
    0.6463   69.4135   65.5778 H   0  0  0  0  0  0  0  0  0  0  0  0
    3.1700   67.0968   63.2586 H   0  0  0  0  0  0  0  0  0  0  0  0
    1.8326   68.3197   63.3009 H   0  0  0  0  0  0  0  0  0  0  0  0
    3.2819   68.1989   61.1754 H   0  0  0  0  0  0  0  0  0  0  0  0
    2.9979   69.8294   61.9710 H   0  0  0  0  0  0  0  0  0  0  0  0
    5.4635   68.6232   61.2204 H   0  0  0  0  0  0  0  0  0  0  0  0
    5.1256   70.2103   62.0671 H   0  0  0  0  0  0  0  0  0  0  0  0
    5.7744   67.5184   63.3010 H   0  0  0  0  0  0  0  0  0  0  0  0
    6.6729   69.0778   63.4307 H   0  0  0  0  0  0  0  0  0  0  0  0
    1.7221   69.9031   68.1205 H   0  0  0  0  0  0  0  0  0  0  0  0
    3.0119   70.8509   70.0240 H   0  0  0  0  0  0  0  0  0  0  0  0
    5.4845   71.1142   69.8295 H   0  0  0  0  0  0  0  0  0  0  0  0
    6.6357   70.4498   67.7325 H   0  0  0  0  0  0  0  0  0  0  0  0
  2  1  1  0
  3  2  1  0
  4  3  1  0
  6  5  2  0
  7  6  1  0
  8  7  2  0
  9  8  1  0
 10  9  2  0
 10  5  1  0
 11 10  1  0
 12 11  2  0
 13 12  1  0
 14 13  1  0
 15 14  1  0
 16 15  1  0
 17 16  1  0
 17 12  1  0
 18 17  2  0
 18  9  1  0
 18  4  1  0
 20  5  1  0
 20 19  1  0
 21 20  2  0
 22  1  1  0
 23 22  1  0
 24 23  1  0
 25 24  1  0
 26 25  1  0
 27 26  1  0
 28 27  1  0
 29 28  1  0
 30 29  1  0
 31 30  1  0
 32 31  1  0
 33 32  1  0
 34 33  1  0
 34 29  2  0
 35 34  1  0
 36 35  2  0
 37 36  1  0
 37 28  2  0
 38 37  1  0
 39 38  2  0
 40 39  1  0
 41 40  2  0
 41 36  1  0
  1 42  1  0
  1 43  1  0
  2 44  1  0
  2 45  1  0
  3 46  1  0
  3 47  1  0
  4 48  1  0
  6 49  1  0
  7 50  1  0
  8 51  1  0
 13 52  1  0
 13 53  1  0
 14 54  1  0
 14 55  1  0
 15 56  1  0
 15 57  1  0
 16 58  1  0
 16 59  1  0
 22 60  1  0
 22 61  1  0
 23 62  1  0
 23 63  1  0
 24 64  1  0
 24 65  1  0
 25 66  1  0
 25 67  1  0
 26 68  1  0
 26 69  1  0
 27 70  1  0
 30 71  1  0
 30 72  1  0
 31 73  1  0
 31 74  1  0
 32 75  1  0
 32 76  1  0
 33 77  1  0
 33 78  1  0
 38 79  1  0
 39 80  1  0
 40 81  1  0
 41 82  1  0
M  CHG  2  19  -1  20   1
M  END
>  <score>  (2) 
-12.415

$$$$
=
     RDKit          3D

 82 87  0  0  0  0  0  0  0  0999 V2000
   -0.7160   67.0880   67.2580 C   0  0  0  0  0  0  0  0  0  0  0  0
   -0.8680   68.5180   66.7250 C   0  0  0  0  0  0  0  0  0  0  0  0
    0.2440   68.9760   65.7770 C   0  0  0  0  0  0  0  0  0  0  0  0
    1.3420   68.0030   65.7460 N   0  0  0  0  0  0  0  0  0  0  0  0
    4.8140   70.5830   68.0070 C   0  0  0  0  0  0  0  0  0  0  0  0
    4.1340   70.6020   69.2300 C   0  0  0  0  0  0  0  0  0  0  0  0
    2.9110   69.9610   69.3110 C   0  0  0  0  0  0  0  0  0  0  0  0
    2.4030   69.3180   68.1810 C   0  0  0  0  0  0  0  0  0  0  0  0
    3.1030   69.2920   66.9400 C   0  0  0  0  0  0  0  0  0  0  0  0
    4.3500   69.9570   66.8510 C   0  0  0  0  0  0  0  0  0  0  0  0
    5.0570   70.0010   65.7040 N   0  0  0  0  0  0  0  0  0  0  0  0
    4.5720   69.3850   64.6090 C   0  0  0  0  0  0  0  0  0  0  0  0
    5.3680   69.4850   63.3350 C   0  0  0  0  0  0  0  0  0  0  0  0
    5.4550   68.1270   62.6440 C   0  0  0  0  0  0  0  0  0  0  0  0
    4.1250   67.3610   62.5950 C   0  0  0  0  0  0  0  0  0  0  0  0
    2.9510   68.0660   63.2820 C   0  0  0  0  0  0  0  0  0  0  0  0
    3.3680   68.6910   64.5870 C   0  0  0  0  0  0  0  0  0  0  0  0
    2.6160   68.6370   65.7700 C   0  0  0  0  0  0  0  0  0  0  0  0
    6.0520   72.5060   68.0030 O   0  0  0  0  0  1  0  0  0  0  0  0
    6.0810   71.2680   67.9480 N   0  0  0  0  0  4  0  0  0  0  0  0
    7.1010   70.5650   67.9420 O   0  0  0  0  0  0  0  0  0  0  0  0
   -0.4910   66.9380   68.7650 C   0  0  0  0  0  0  0  0  0  0  0  0
    0.9630   66.7350   69.2060 C   0  0  0  0  0  0  0  0  0  0  0  0
    1.1840   65.6700   70.2840 C   0  0  0  0  0  0  0  0  0  0  0  0
    0.1820   64.5110   70.2920 C   0  0  0  0  0  0  0  0  0  0  0  0
    0.0060   63.8700   71.6710 C   0  0  0  0  0  0  0  0  0  0  0  0
    1.2860   63.4040   72.2240 N   0  0  0  0  0  0  0  0  0  0  0  0
    1.5280   62.0150   72.0900 C   0  0  0  0  0  0  0  0  0  0  0  0
    0.9270   61.0880   72.9580 C   0  0  0  0  0  0  0  0  0  0  0  0
   -0.0580   61.4200   74.0490 C   0  0  0  0  0  0  0  0  0  0  0  0
   -1.2080   60.4090   74.1000 C   0  0  0  0  0  0  0  0  0  0  0  0
   -0.7810   58.9440   73.9440 C   0  0  0  0  0  0  0  0  0  0  0  0
    0.7270   58.7500   73.8180 C   0  0  0  0  0  0  0  0  0  0  0  0
    1.3120   59.7480   72.8510 C   0  0  0  0  0  0  0  0  0  0  0  0
    2.2110   59.2870   71.9580 N   0  0  0  0  0  0  0  0  0  0  0  0
    2.7560   60.1610   71.1010 C   0  0  0  0  0  0  0  0  0  0  0  0
    2.4530   61.5390   71.1140 C   0  0  0  0  0  0  0  0  0  0  0  0
    3.0580   62.3700   70.1390 C   0  0  0  0  0  0  0  0  0  0  0  0
    3.9590   61.8610   69.2040 C   0  0  0  0  0  0  0  0  0  0  0  0
    4.2640   60.5090   69.2190 C   0  0  0  0  0  0  0  0  0  0  0  0
    3.6590   59.6770   70.1630 C   0  0  0  0  0  0  0  0  0  0  0  0
   -1.6327   66.5369   67.0010 H   0  0  0  0  0  0  0  0  0  0  0  0
    0.1995   66.6993   66.7881 H   0  0  0  0  0  0  0  0  0  0  0  0
   -1.8244   68.5813   66.1852 H   0  0  0  0  0  0  0  0  0  0  0  0
   -0.8172   69.1803   67.6018 H   0  0  0  0  0  0  0  0  0  0  0  0
   -0.1693   69.0845   64.7634 H   0  0  0  0  0  0  0  0  0  0  0  0
    0.6379   69.9378   66.1373 H   0  0  0  0  0  0  0  0  0  0  0  0
    1.2068   66.9825   65.7110 H   0  0  0  0  0  0  0  0  0  0  0  0
    4.5614   71.1138   70.1049 H   0  0  0  0  0  0  0  0  0  0  0  0
    2.3455   69.9580   70.2545 H   0  0  0  0  0  0  0  0  0  0  0  0
    1.4280   68.8136   68.2509 H   0  0  0  0  0  0  0  0  0  0  0  0
    4.8796   70.2029   62.6597 H   0  0  0  0  0  0  0  0  0  0  0  0
    6.3859   69.8224   63.5801 H   0  0  0  0  0  0  0  0  0  0  0  0
    5.7999   68.2864   61.6117 H   0  0  0  0  0  0  0  0  0  0  0  0
    6.1516   67.5147   63.2355 H   0  0  0  0  0  0  0  0  0  0  0  0
    3.8593   67.2041   61.5392 H   0  0  0  0  0  0  0  0  0  0  0  0
    4.2878   66.4230   63.1460 H   0  0  0  0  0  0  0  0  0  0  0  0
    2.5674   68.8527   62.6157 H   0  0  0  0  0  0  0  0  0  0  0  0
    2.1739   67.3162   63.4918 H   0  0  0  0  0  0  0  0  0  0  0  0
   -0.8682   67.8479   69.2547 H   0  0  0  0  0  0  0  0  0  0  0  0
   -1.0222   66.0199   69.0562 H   0  0  0  0  0  0  0  0  0  0  0  0
    1.5484   66.4469   68.3204 H   0  0  0  0  0  0  0  0  0  0  0  0
    1.2775   67.6885   69.6555 H   0  0  0  0  0  0  0  0  0  0  0  0
    2.1888   65.2464   70.1389 H   0  0  0  0  0  0  0  0  0  0  0  0
    1.0507   66.1866   71.2459 H   0  0  0  0  0  0  0  0  0  0  0  0
   -0.7942   64.8915   69.9571 H   0  0  0  0  0  0  0  0  0  0  0  0
    0.5777   63.7346   69.6207 H   0  0  0  0  0  0  0  0  0  0  0  0
   -0.4284   64.6129   72.3561 H   0  0  0  0  0  0  0  0  0  0  0  0
   -0.6563   62.9987   71.5609 H   0  0  0  0  0  0  0  0  0  0  0  0
    1.9576   64.0410   72.6758 H   0  0  0  0  0  0  0  0  0  0  0  0
    0.4657   61.4135   75.0163 H   0  0  0  0  0  0  0  0  0  0  0  0
   -0.4826   62.4125   73.8377 H   0  0  0  0  0  0  0  0  0  0  0  0
   -1.7159   60.5164   75.0698 H   0  0  0  0  0  0  0  0  0  0  0  0
   -1.8592   60.6357   73.2429 H   0  0  0  0  0  0  0  0  0  0  0  0
   -1.1296   58.3858   74.8254 H   0  0  0  0  0  0  0  0  0  0  0  0
   -1.2294   58.5785   73.0084 H   0  0  0  0  0  0  0  0  0  0  0  0
    1.1928   58.8873   74.8050 H   0  0  0  0  0  0  0  0  0  0  0  0
    0.9236   57.7351   73.4421 H   0  0  0  0  0  0  0  0  0  0  0  0
    2.8113   63.4418   70.1190 H   0  0  0  0  0  0  0  0  0  0  0  0
    4.4234   62.5265   68.4614 H   0  0  0  0  0  0  0  0  0  0  0  0
    4.9779   60.0943   68.4921 H   0  0  0  0  0  0  0  0  0  0  0  0
    3.9051   58.6049   70.1640 H   0  0  0  0  0  0  0  0  0  0  0  0
  2  1  1  0
  3  2  1  0
  4  3  1  0
  6  5  2  0
  7  6  1  0
  8  7  2  0
  9  8  1  0
 10  9  2  0
 10  5  1  0
 11 10  1  0
 12 11  2  0
 13 12  1  0
 14 13  1  0
 15 14  1  0
 16 15  1  0
 17 16  1  0
 17 12  1  0
 18 17  2  0
 18  9  1  0
 18  4  1  0
 20  5  1  0
 20 19  1  0
 21 20  2  0
 22  1  1  0
 23 22  1  0
 24 23  1  0
 25 24  1  0
 26 25  1  0
 27 26  1  0
 28 27  1  0
 29 28  1  0
 30 29  1  0
 31 30  1  0
 32 31  1  0
 33 32  1  0
 34 33  1  0
 34 29  2  0
 35 34  1  0
 36 35  2  0
 37 36  1  0
 37 28  2  0
 38 37  1  0
 39 38  2  0
 40 39  1  0
 41 40  2  0
 41 36  1  0
  1 42  1  0
  1 43  1  0
  2 44  1  0
  2 45  1  0
  3 46  1  0
  3 47  1  0
  4 48  1  0
  6 49  1  0
  7 50  1  0
  8 51  1  0
 13 52  1  0
 13 53  1  0
 14 54  1  0
 14 55  1  0
 15 56  1  0
 15 57  1  0
 16 58  1  0
 16 59  1  0
 22 60  1  0
 22 61  1  0
 23 62  1  0
 23 63  1  0
 24 64  1  0
 24 65  1  0
 25 66  1  0
 25 67  1  0
 26 68  1  0
 26 69  1  0
 27 70  1  0
 30 71  1  0
 30 72  1  0
 31 73  1  0
 31 74  1  0
 32 75  1  0
 32 76  1  0
 33 77  1  0
 33 78  1  0
 38 79  1  0
 39 80  1  0
 40 81  1  0
 41 82  1  0
M  CHG  2  19  -1  20   1
M  END
>  <score>  (3) 
-12.031

$$$$
=
     RDKit          3D

 82 87  0  0  0  0  0  0  0  0999 V2000
   -0.4320   66.5400   68.9580 C   0  0  0  0  0  0  0  0  0  0  0  0
    0.0920   67.5540   67.9330 C   0  0  0  0  0  0  0  0  0  0  0  0
    1.4460   68.1800   68.2780 C   0  0  0  0  0  0  0  0  0  0  0  0
    1.6230   69.4620   67.5870 N   0  0  0  0  0  0  0  0  0  0  0  0
    3.7580   68.5660   63.2900 C   0  0  0  0  0  0  0  0  0  0  0  0
    2.5620   68.1890   62.6680 C   0  0  0  0  0  0  0  0  0  0  0  0
    1.3970   68.2220   63.4140 C   0  0  0  0  0  0  0  0  0  0  0  0
    1.4530   68.6310   64.7470 C   0  0  0  0  0  0  0  0  0  0  0  0
    2.6710   69.0230   65.3730 C   0  0  0  0  0  0  0  0  0  0  0  0
    3.8660   68.9800   64.6160 C   0  0  0  0  0  0  0  0  0  0  0  0
    5.0620   69.3080   65.1470 N   0  0  0  0  0  0  0  0  0  0  0  0
    5.1230   69.7010   66.4340 C   0  0  0  0  0  0  0  0  0  0  0  0
    6.4790   70.0240   67.0070 C   0  0  0  0  0  0  0  0  0  0  0  0
    6.4270   71.3140   67.8210 C   0  0  0  0  0  0  0  0  0  0  0  0
    5.2140   71.4180   68.7570 C   0  0  0  0  0  0  0  0  0  0  0  0
    4.2430   70.2360   68.6850 C   0  0  0  0  0  0  0  0  0  0  0  0
    4.0120   69.7950   67.2630 C   0  0  0  0  0  0  0  0  0  0  0  0
    2.7600   69.4530   66.7300 C   0  0  0  0  0  0  0  0  0  0  0  0
    5.5020   67.4050   62.3730 O   0  0  0  0  0  1  0  0  0  0  0  0
    4.9580   68.5120   62.4930 N   0  0  0  0  0  4  0  0  0  0  0  0
    5.2970   69.5540   61.9160 O   0  0  0  0  0  0  0  0  0  0  0  0
    0.4620   66.2640   70.1700 C   0  0  0  0  0  0  0  0  0  0  0  0
    1.1260   64.8830   70.2070 C   0  0  0  0  0  0  0  0  0  0  0  0
    0.2200   63.7250   70.6360 C   0  0  0  0  0  0  0  0  0  0  0  0
    0.0570   63.5300   72.1470 C   0  0  0  0  0  0  0  0  0  0  0  0
   -0.2540   62.0850   72.5430 C   0  0  0  0  0  0  0  0  0  0  0  0
    0.7400   61.5520   73.4880 N   0  0  0  0  0  0  0  0  0  0  0  0
    1.5430   60.4990   72.9850 C   0  0  0  0  0  0  0  0  0  0  0  0
    2.6960   60.7660   72.2280 C   0  0  0  0  0  0  0  0  0  0  0  0
    3.2460   62.1360   71.9220 C   0  0  0  0  0  0  0  0  0  0  0  0
    4.7720   62.1750   72.0510 C   0  0  0  0  0  0  0  0  0  0  0  0
    5.4970   60.9630   71.4530 C   0  0  0  0  0  0  0  0  0  0  0  0
    4.5680   59.9540   70.7850 C   0  0  0  0  0  0  0  0  0  0  0  0
    3.3670   59.6820   71.6550 C   0  0  0  0  0  0  0  0  0  0  0  0
    2.9860   58.3960   71.7950 N   0  0  0  0  0  0  0  0  0  0  0  0
    1.9100   58.1330   72.5490 C   0  0  0  0  0  0  0  0  0  0  0  0
    1.1470   59.1430   73.1750 C   0  0  0  0  0  0  0  0  0  0  0  0
    0.0500   58.7520   73.9810 C   0  0  0  0  0  0  0  0  0  0  0  0
   -0.3010   57.4120   74.1370 C   0  0  0  0  0  0  0  0  0  0  0  0
    0.4440   56.4350   73.4980 C   0  0  0  0  0  0  0  0  0  0  0  0
    1.5400   56.8050   72.7160 C   0  0  0  0  0  0  0  0  0  0  0  0
   -1.3964   66.9130   69.3331 H   0  0  0  0  0  0  0  0  0  0  0  0
   -0.4888   65.5842   68.4166 H   0  0  0  0  0  0  0  0  0  0  0  0
    0.1896   67.0414   66.9647 H   0  0  0  0  0  0  0  0  0  0  0  0
   -0.6343   68.3800   67.9178 H   0  0  0  0  0  0  0  0  0  0  0  0
    1.4994   68.3462   69.3641 H   0  0  0  0  0  0  0  0  0  0  0  0
    2.2424   67.4939   67.9539 H   0  0  0  0  0  0  0  0  0  0  0  0
    0.9988   70.2724   67.7075 H   0  0  0  0  0  0  0  0  0  0  0  0
    2.5486   67.8748   61.6139 H   0  0  0  0  0  0  0  0  0  0  0  0
    0.4380   67.9293   62.9616 H   0  0  0  0  0  0  0  0  0  0  0  0
    0.5237   68.6514   65.3352 H   0  0  0  0  0  0  0  0  0  0  0  0
    6.8017   69.1986   67.6586 H   0  0  0  0  0  0  0  0  0  0  0  0
    7.1906   70.1568   66.1787 H   0  0  0  0  0  0  0  0  0  0  0  0
    7.3401   71.3740   68.4314 H   0  0  0  0  0  0  0  0  0  0  0  0
    6.3421   72.1402   67.0998 H   0  0  0  0  0  0  0  0  0  0  0  0
    5.5845   71.4938   69.7899 H   0  0  0  0  0  0  0  0  0  0  0  0
    4.6479   72.3035   68.4324 H   0  0  0  0  0  0  0  0  0  0  0  0
    4.6618   69.3945   69.2564 H   0  0  0  0  0  0  0  0  0  0  0  0
    3.2790   70.5559   69.1073 H   0  0  0  0  0  0  0  0  0  0  0  0
    1.2588   67.0223   70.1816 H   0  0  0  0  0  0  0  0  0  0  0  0
   -0.2021   66.3003   71.0462 H   0  0  0  0  0  0  0  0  0  0  0  0
    1.5033   64.6616   69.1977 H   0  0  0  0  0  0  0  0  0  0  0  0
    1.9140   64.9481   70.9717 H   0  0  0  0  0  0  0  0  0  0  0  0
   -0.7782   63.9015   70.2089 H   0  0  0  0  0  0  0  0  0  0  0  0
    0.7091   62.8110   70.2680 H   0  0  0  0  0  0  0  0  0  0  0  0
    0.9921   63.8333   72.6406 H   0  0  0  0  0  0  0  0  0  0  0  0
   -0.7985   64.1448   72.4634 H   0  0  0  0  0  0  0  0  0  0  0  0
   -1.2474   62.0507   73.0140 H   0  0  0  0  0  0  0  0  0  0  0  0
   -0.2267   61.4674   71.6331 H   0  0  0  0  0  0  0  0  0  0  0  0
    0.8443   61.9178   74.4452 H   0  0  0  0  0  0  0  0  0  0  0  0
    2.9679   62.4104   70.8937 H   0  0  0  0  0  0  0  0  0  0  0  0
    2.8220   62.8459   72.6474 H   0  0  0  0  0  0  0  0  0  0  0  0
    5.1361   63.0785   71.5399 H   0  0  0  0  0  0  0  0  0  0  0  0
    4.9929   62.1685   73.1286 H   0  0  0  0  0  0  0  0  0  0  0  0
    6.2136   61.3246   70.7009 H   0  0  0  0  0  0  0  0  0  0  0  0
    5.9877   60.4410   72.2877 H   0  0  0  0  0  0  0  0  0  0  0  0
    4.2307   60.3575   69.8189 H   0  0  0  0  0  0  0  0  0  0  0  0
    5.1167   59.0128   70.6334 H   0  0  0  0  0  0  0  0  0  0  0  0
   -0.5394   59.5246   74.4965 H   0  0  0  0  0  0  0  0  0  0  0  0
   -1.1621   57.1331   74.7621 H   0  0  0  0  0  0  0  0  0  0  0  0
    0.1740   55.3741   73.6058 H   0  0  0  0  0  0  0  0  0  0  0  0
    2.1282   56.0207   72.2171 H   0  0  0  0  0  0  0  0  0  0  0  0
  2  1  1  0
  3  2  1  0
  4  3  1  0
  6  5  2  0
  7  6  1  0
  8  7  2  0
  9  8  1  0
 10  9  2  0
 10  5  1  0
 11 10  1  0
 12 11  2  0
 13 12  1  0
 14 13  1  0
 15 14  1  0
 16 15  1  0
 17 16  1  0
 17 12  1  0
 18 17  2  0
 18  9  1  0
 18  4  1  0
 20  5  1  0
 20 19  1  0
 21 20  2  0
 22  1  1  0
 23 22  1  0
 24 23  1  0
 25 24  1  0
 26 25  1  0
 27 26  1  0
 28 27  1  0
 29 28  1  0
 30 29  1  0
 31 30  1  0
 32 31  1  0
 33 32  1  0
 34 33  1  0
 34 29  2  0
 35 34  1  0
 36 35  2  0
 37 36  1  0
 37 28  2  0
 38 37  1  0
 39 38  2  0
 40 39  1  0
 41 40  2  0
 41 36  1  0
  1 42  1  0
  1 43  1  0
  2 44  1  0
  2 45  1  0
  3 46  1  0
  3 47  1  0
  4 48  1  0
  6 49  1  0
  7 50  1  0
  8 51  1  0
 13 52  1  0
 13 53  1  0
 14 54  1  0
 14 55  1  0
 15 56  1  0
 15 57  1  0
 16 58  1  0
 16 59  1  0
 22 60  1  0
 22 61  1  0
 23 62  1  0
 23 63  1  0
 24 64  1  0
 24 65  1  0
 25 66  1  0
 25 67  1  0
 26 68  1  0
 26 69  1  0
 27 70  1  0
 30 71  1  0
 30 72  1  0
 31 73  1  0
 31 74  1  0
 32 75  1  0
 32 76  1  0
 33 77  1  0
 33 78  1  0
 38 79  1  0
 39 80  1  0
 40 81  1  0
 41 82  1  0
M  CHG  2  19  -1  20   1
M  END
>  <score>  (4) 
-11.995

$$$$
=
     RDKit          3D

 82 87  0  0  0  0  0  0  0  0999 V2000
    3.6230   63.6300   65.1100 C   0  0  0  0  0  0  0  0  0  0  0  0
    4.2370   63.6750   66.5150 C   0  0  0  0  0  0  0  0  0  0  0  0
    3.4410   62.9330   67.5920 C   0  0  0  0  0  0  0  0  0  0  0  0
    4.0400   63.1310   68.9170 N   0  0  0  0  0  0  0  0  0  0  0  0
    0.4470   63.8300   72.1450 C   0  0  0  0  0  0  0  0  0  0  0  0
    0.1660   65.1240   71.6930 C   0  0  0  0  0  0  0  0  0  0  0  0
    0.9110   65.6290   70.6420 C   0  0  0  0  0  0  0  0  0  0  0  0
    1.9070   64.8340   70.0710 C   0  0  0  0  0  0  0  0  0  0  0  0
    2.1830   63.5130   70.5280 C   0  0  0  0  0  0  0  0  0  0  0  0
    1.4290   62.9990   71.6100 C   0  0  0  0  0  0  0  0  0  0  0  0
    1.6520   61.7700   72.1170 N   0  0  0  0  0  0  0  0  0  0  0  0
    2.6140   60.9980   71.5720 C   0  0  0  0  0  0  0  0  0  0  0  0
    2.8620   59.6460   72.1860 C   0  0  0  0  0  0  0  0  0  0  0  0
    3.0080   58.5800   71.1030 C   0  0  0  0  0  0  0  0  0  0  0  0
    3.8950   59.0010   69.9230 C   0  0  0  0  0  0  0  0  0  0  0  0
    4.4460   60.4280   70.0100 C   0  0  0  0  0  0  0  0  0  0  0  0
    3.4020   61.3960   70.4990 C   0  0  0  0  0  0  0  0  0  0  0  0
    3.1870   62.6740   69.9610 C   0  0  0  0  0  0  0  0  0  0  0  0
   -0.2820   63.9740   74.3080 O   0  0  0  0  0  1  0  0  0  0  0  0
   -0.3380   63.3340   73.2480 N   0  0  0  0  0  4  0  0  0  0  0  0
   -1.0770   62.3660   73.0220 O   0  0  0  0  0  0  0  0  0  0  0  0
    3.4310   64.9740   64.4010 C   0  0  0  0  0  0  0  0  0  0  0  0
    4.5040   65.3430   63.3700 C   0  0  0  0  0  0  0  0  0  0  0  0
    4.1840   66.5530   62.4870 C   0  0  0  0  0  0  0  0  0  0  0  0
    5.0060   67.8160   62.7660 C   0  0  0  0  0  0  0  0  0  0  0  0
    5.2270   68.0800   64.2570 C   0  0  0  0  0  0  0  0  0  0  0  0
    4.7260   69.4040   64.6570 N   0  0  0  0  0  0  0  0  0  0  0  0
    4.1390   69.4590   65.9460 C   0  0  0  0  0  0  0  0  0  0  0  0
    2.7970   69.0960   66.1470 C   0  0  0  0  0  0  0  0  0  0  0  0
    1.8660   68.5610   65.0890 C   0  0  0  0  0  0  0  0  0  0  0  0
    1.0120   67.4050   65.6200 C   0  0  0  0  0  0  0  0  0  0  0  0
    0.4460   67.6210   67.0290 C   0  0  0  0  0  0  0  0  0  0  0  0
    0.7920   68.9780   67.6330 C   0  0  0  0  0  0  0  0  0  0  0  0
    2.2490   69.3000   67.4170 C   0  0  0  0  0  0  0  0  0  0  0  0
    2.9310   69.8080   68.4630 N   0  0  0  0  0  0  0  0  0  0  0  0
    4.2210   70.1170   68.2870 C   0  0  0  0  0  0  0  0  0  0  0  0
    4.8860   69.9620   67.0510 C   0  0  0  0  0  0  0  0  0  0  0  0
    6.2640   70.2850   66.9840 C   0  0  0  0  0  0  0  0  0  0  0  0
    6.9530   70.7760   68.0920 C   0  0  0  0  0  0  0  0  0  0  0  0
    6.2810   70.9440   69.2920 C   0  0  0  0  0  0  0  0  0  0  0  0
    4.9280   70.6110   69.3760 C   0  0  0  0  0  0  0  0  0  0  0  0
    4.2780   63.0109   64.4794 H   0  0  0  0  0  0  0  0  0  0  0  0
    2.6083   63.2290   65.2501 H   0  0  0  0  0  0  0  0  0  0  0  0
    5.2407   63.2279   66.4634 H   0  0  0  0  0  0  0  0  0  0  0  0
    4.2459   64.7337   66.8133 H   0  0  0  0  0  0  0  0  0  0  0  0
    2.4089   63.3135   67.6030 H   0  0  0  0  0  0  0  0  0  0  0  0
    3.4523   61.8581   67.3588 H   0  0  0  0  0  0  0  0  0  0  0  0
    4.9675   63.5508   69.0730 H   0  0  0  0  0  0  0  0  0  0  0  0
   -0.6274   65.7249   72.1615 H   0  0  0  0  0  0  0  0  0  0  0  0
    0.7212   66.6434   70.2613 H   0  0  0  0  0  0  0  0  0  0  0  0
    2.4995   65.2421   69.2389 H   0  0  0  0  0  0  0  0  0  0  0  0
    3.7857   59.6841   72.7820 H   0  0  0  0  0  0  0  0  0  0  0  0
    2.0056   59.3855   72.8254 H   0  0  0  0  0  0  0  0  0  0  0  0
    3.4461   57.6807   71.5606 H   0  0  0  0  0  0  0  0  0  0  0  0
    2.0018   58.4028   70.6954 H   0  0  0  0  0  0  0  0  0  0  0  0
    4.7474   58.3077   69.8713 H   0  0  0  0  0  0  0  0  0  0  0  0
    3.2554   58.9702   69.0286 H   0  0  0  0  0  0  0  0  0  0  0  0
    5.2978   60.4400   70.7059 H   0  0  0  0  0  0  0  0  0  0  0  0
    4.7580   60.7385   69.0019 H   0  0  0  0  0  0  0  0  0  0  0  0
    2.4607   64.9472   63.8836 H   0  0  0  0  0  0  0  0  0  0  0  0
    3.4969   65.7395   65.1882 H   0  0  0  0  0  0  0  0  0  0  0  0
    5.4361   65.5574   63.9133 H   0  0  0  0  0  0  0  0  0  0  0  0
    4.5750   64.4828   62.6881 H   0  0  0  0  0  0  0  0  0  0  0  0
    4.3561   66.2623   61.4402 H   0  0  0  0  0  0  0  0  0  0  0  0
    3.1404   66.8193   62.7105 H   0  0  0  0  0  0  0  0  0  0  0  0
    5.9877   67.7071   62.2819 H   0  0  0  0  0  0  0  0  0  0  0  0
    4.4375   68.6685   62.3660 H   0  0  0  0  0  0  0  0  0  0  0  0
    4.6988   67.3091   64.8373 H   0  0  0  0  0  0  0  0  0  0  0  0
    6.3090   68.0501   64.4531 H   0  0  0  0  0  0  0  0  0  0  0  0
    4.7965   70.2299   64.0457 H   0  0  0  0  0  0  0  0  0  0  0  0
    1.2014   69.3717   64.7555 H   0  0  0  0  0  0  0  0  0  0  0  0
    2.4750   68.1832   64.2545 H   0  0  0  0  0  0  0  0  0  0  0  0
    0.1677   67.2578   64.9304 H   0  0  0  0  0  0  0  0  0  0  0  0
    1.6768   66.5309   65.6829 H   0  0  0  0  0  0  0  0  0  0  0  0
   -0.6494   67.5332   66.9794 H   0  0  0  0  0  0  0  0  0  0  0  0
    0.9021   66.8578   67.6766 H   0  0  0  0  0  0  0  0  0  0  0  0
    0.1758   69.7539   67.1552 H   0  0  0  0  0  0  0  0  0  0  0  0
    0.5929   68.9456   68.7143 H   0  0  0  0  0  0  0  0  0  0  0  0
    6.8029   70.1450   66.0353 H   0  0  0  0  0  0  0  0  0  0  0  0
    8.0209   71.0279   68.0143 H   0  0  0  0  0  0  0  0  0  0  0  0
    6.8101   71.3372   70.1726 H   0  0  0  0  0  0  0  0  0  0  0  0
    4.4052   70.7439   70.3346 H   0  0  0  0  0  0  0  0  0  0  0  0
  2  1  1  0
  3  2  1  0
  4  3  1  0
  6  5  2  0
  7  6  1  0
  8  7  2  0
  9  8  1  0
 10  9  2  0
 10  5  1  0
 11 10  1  0
 12 11  2  0
 13 12  1  0
 14 13  1  0
 15 14  1  0
 16 15  1  0
 17 16  1  0
 17 12  1  0
 18 17  2  0
 18  9  1  0
 18  4  1  0
 20  5  1  0
 20 19  1  0
 21 20  2  0
 22  1  1  0
 23 22  1  0
 24 23  1  0
 25 24  1  0
 26 25  1  0
 27 26  1  0
 28 27  1  0
 29 28  1  0
 30 29  1  0
 31 30  1  0
 32 31  1  0
 33 32  1  0
 34 33  1  0
 34 29  2  0
 35 34  1  0
 36 35  2  0
 37 36  1  0
 37 28  2  0
 38 37  1  0
 39 38  2  0
 40 39  1  0
 41 40  2  0
 41 36  1  0
  1 42  1  0
  1 43  1  0
  2 44  1  0
  2 45  1  0
  3 46  1  0
  3 47  1  0
  4 48  1  0
  6 49  1  0
  7 50  1  0
  8 51  1  0
 13 52  1  0
 13 53  1  0
 14 54  1  0
 14 55  1  0
 15 56  1  0
 15 57  1  0
 16 58  1  0
 16 59  1  0
 22 60  1  0
 22 61  1  0
 23 62  1  0
 23 63  1  0
 24 64  1  0
 24 65  1  0
 25 66  1  0
 25 67  1  0
 26 68  1  0
 26 69  1  0
 27 70  1  0
 30 71  1  0
 30 72  1  0
 31 73  1  0
 31 74  1  0
 32 75  1  0
 32 76  1  0
 33 77  1  0
 33 78  1  0
 38 79  1  0
 39 80  1  0
 40 81  1  0
 41 82  1  0
M  CHG  2  19  -1  20   1
M  END
>  <score>  (5) 
-11.958

$$$$
=
     RDKit          3D

 82 87  0  0  0  0  0  0  0  0999 V2000
   -0.3660   66.4610   69.5030 C   0  0  0  0  0  0  0  0  0  0  0  0
    1.1310   66.6480   69.7770 C   0  0  0  0  0  0  0  0  0  0  0  0
    1.8650   65.3900   70.2500 C   0  0  0  0  0  0  0  0  0  0  0  0
    1.0030   64.2080   70.1410 N   0  0  0  0  0  0  0  0  0  0  0  0
    3.2020   60.0170   71.3340 C   0  0  0  0  0  0  0  0  0  0  0  0
    3.7680   59.8450   70.0660 C   0  0  0  0  0  0  0  0  0  0  0  0
    3.5210   60.8050   69.1010 C   0  0  0  0  0  0  0  0  0  0  0  0
    2.7280   61.9070   69.4250 C   0  0  0  0  0  0  0  0  0  0  0  0
    2.1630   62.0840   70.7200 C   0  0  0  0  0  0  0  0  0  0  0  0
    2.4040   61.0980   71.7060 C   0  0  0  0  0  0  0  0  0  0  0  0
    1.8790   61.1800   72.9450 N   0  0  0  0  0  0  0  0  0  0  0  0
    1.1100   62.2400   73.2640 C   0  0  0  0  0  0  0  0  0  0  0  0
    0.5090   62.2840   74.6440 C   0  0  0  0  0  0  0  0  0  0  0  0
    0.6600   63.6740   75.2550 C   0  0  0  0  0  0  0  0  0  0  0  0
    0.3230   64.8230   74.2940 C   0  0  0  0  0  0  0  0  0  0  0  0
   -0.0660   64.3840   72.8790 C   0  0  0  0  0  0  0  0  0  0  0  0
    0.8220   63.2740   72.3800 C   0  0  0  0  0  0  0  0  0  0  0  0
    1.3550   63.2030   71.0850 C   0  0  0  0  0  0  0  0  0  0  0  0
    2.7950   57.9570   72.2390 O   0  0  0  0  0  1  0  0  0  0  0  0
    3.4660   58.9960   72.3160 N   0  0  0  0  0  4  0  0  0  0  0  0
    4.4050   59.1980   73.1000 O   0  0  0  0  0  0  0  0  0  0  0  0
   -0.7990   66.4430   68.0350 C   0  0  0  0  0  0  0  0  0  0  0  0
   -2.0510   67.2600   67.6990 C   0  0  0  0  0  0  0  0  0  0  0  0
   -1.8200   68.4930   66.8190 C   0  0  0  0  0  0  0  0  0  0  0  0
   -0.4630   69.1850   66.9860 C   0  0  0  0  0  0  0  0  0  0  0  0
    0.4660   68.9970   65.7840 C   0  0  0  0  0  0  0  0  0  0  0  0
    1.6210   68.1480   66.1140 N   0  0  0  0  0  0  0  0  0  0  0  0
    2.8870   68.7320   65.8630 C   0  0  0  0  0  0  0  0  0  0  0  0
    3.5300   68.5640   64.6250 C   0  0  0  0  0  0  0  0  0  0  0  0
    2.9610   67.8360   63.4340 C   0  0  0  0  0  0  0  0  0  0  0  0
    3.2410   68.5840   62.1270 C   0  0  0  0  0  0  0  0  0  0  0  0
    4.6600   69.1530   62.0050 C   0  0  0  0  0  0  0  0  0  0  0  0
    5.5610   68.8270   63.1920 C   0  0  0  0  0  0  0  0  0  0  0  0
    4.8310   69.0560   64.4920 C   0  0  0  0  0  0  0  0  0  0  0  0
    5.5020   69.6960   65.4710 N   0  0  0  0  0  0  0  0  0  0  0  0
    4.8790   69.8950   66.6400 C   0  0  0  0  0  0  0  0  0  0  0  0
    3.5680   69.4390   66.8970 C   0  0  0  0  0  0  0  0  0  0  0  0
    2.9880   69.7360   68.1550 C   0  0  0  0  0  0  0  0  0  0  0  0
    3.6930   70.4300   69.1380 C   0  0  0  0  0  0  0  0  0  0  0  0
    4.9870   70.8500   68.8780 C   0  0  0  0  0  0  0  0  0  0  0  0
    5.5620   70.5810   67.6350 C   0  0  0  0  0  0  0  0  0  0  0  0
   -0.6701   65.5039   69.9520 H   0  0  0  0  0  0  0  0  0  0  0  0
   -0.8523   67.3471   69.9370 H   0  0  0  0  0  0  0  0  0  0  0  0
    1.6077   66.9917   68.8471 H   0  0  0  0  0  0  0  0  0  0  0  0
    1.2043   67.3741   70.6000 H   0  0  0  0  0  0  0  0  0  0  0  0
    2.7607   65.2409   69.6291 H   0  0  0  0  0  0  0  0  0  0  0  0
    2.1463   65.5234   71.3050 H   0  0  0  0  0  0  0  0  0  0  0  0
    0.2342   64.1164   69.4617 H   0  0  0  0  0  0  0  0  0  0  0  0
    4.3937   58.9684   69.8421 H   0  0  0  0  0  0  0  0  0  0  0  0
    3.9442   60.7012   68.0910 H   0  0  0  0  0  0  0  0  0  0  0  0
    2.5326   62.6655   68.6527 H   0  0  0  0  0  0  0  0  0  0  0  0
   -0.5598   62.0319   74.5804 H   0  0  0  0  0  0  0  0  0  0  0  0
    1.0354   61.5587   75.2818 H   0  0  0  0  0  0  0  0  0  0  0  0
   -0.0102   63.7435   76.1245 H   0  0  0  0  0  0  0  0  0  0  0  0
    1.7204   63.7877   75.5246 H   0  0  0  0  0  0  0  0  0  0  0  0
   -0.5182   65.3897   74.7198 H   0  0  0  0  0  0  0  0  0  0  0  0
    1.2411   65.4202   74.1915 H   0  0  0  0  0  0  0  0  0  0  0  0
   -1.1078   64.0311   72.8883 H   0  0  0  0  0  0  0  0  0  0  0  0
    0.0501   65.2467   72.2065 H   0  0  0  0  0  0  0  0  0  0  0  0
    0.0329   66.8372   67.4329 H   0  0  0  0  0  0  0  0  0  0  0  0
   -1.0562   65.3970   67.8122 H   0  0  0  0  0  0  0  0  0  0  0  0
   -2.7568   66.5981   67.1758 H   0  0  0  0  0  0  0  0  0  0  0  0
   -2.4281   67.6418   68.6592 H   0  0  0  0  0  0  0  0  0  0  0  0
   -1.9127   68.1804   65.7684 H   0  0  0  0  0  0  0  0  0  0  0  0
   -2.5729   69.2306   67.1336 H   0  0  0  0  0  0  0  0  0  0  0  0
   -0.6357   70.2620   67.1284 H   0  0  0  0  0  0  0  0  0  0  0  0
    0.0317   68.7255   67.8544 H   0  0  0  0  0  0  0  0  0  0  0  0
   -0.1000   68.5262   64.9667 H   0  0  0  0  0  0  0  0  0  0  0  0
    0.8430   69.9862   65.4851 H   0  0  0  0  0  0  0  0  0  0  0  0
    1.5169   67.1985   66.4993 H   0  0  0  0  0  0  0  0  0  0  0  0
    3.4154   66.8359   63.3769 H   0  0  0  0  0  0  0  0  0  0  0  0
    1.8708   67.7665   63.5629 H   0  0  0  0  0  0  0  0  0  0  0  0
    3.0785   67.8869   61.2918 H   0  0  0  0  0  0  0  0  0  0  0  0
    2.5583   69.4463   62.1104 H   0  0  0  0  0  0  0  0  0  0  0  0
    5.1218   68.7400   61.0960 H   0  0  0  0  0  0  0  0  0  0  0  0
    4.5628   70.2481   61.9693 H   0  0  0  0  0  0  0  0  0  0  0  0
    5.8705   67.7731   63.1321 H   0  0  0  0  0  0  0  0  0  0  0  0
    6.4419   69.4850   63.1595 H   0  0  0  0  0  0  0  0  0  0  0  0
    1.9574   69.4116   68.3613 H   0  0  0  0  0  0  0  0  0  0  0  0
    3.2257   70.6419   70.1110 H   0  0  0  0  0  0  0  0  0  0  0  0
    5.5579   71.3921   69.6463 H   0  0  0  0  0  0  0  0  0  0  0  0
    6.5886   70.9233   67.4376 H   0  0  0  0  0  0  0  0  0  0  0  0
  2  1  1  0
  3  2  1  0
  4  3  1  0
  6  5  2  0
  7  6  1  0
  8  7  2  0
  9  8  1  0
 10  9  2  0
 10  5  1  0
 11 10  1  0
 12 11  2  0
 13 12  1  0
 14 13  1  0
 15 14  1  0
 16 15  1  0
 17 16  1  0
 17 12  1  0
 18 17  2  0
 18  9  1  0
 18  4  1  0
 20  5  1  0
 20 19  1  0
 21 20  2  0
 22  1  1  0
 23 22  1  0
 24 23  1  0
 25 24  1  0
 26 25  1  0
 27 26  1  0
 28 27  1  0
 29 28  1  0
 30 29  1  0
 31 30  1  0
 32 31  1  0
 33 32  1  0
 34 33  1  0
 34 29  2  0
 35 34  1  0
 36 35  2  0
 37 36  1  0
 37 28  2  0
 38 37  1  0
 39 38  2  0
 40 39  1  0
 41 40  2  0
 41 36  1  0
  1 42  1  0
  1 43  1  0
  2 44  1  0
  2 45  1  0
  3 46  1  0
  3 47  1  0
  4 48  1  0
  6 49  1  0
  7 50  1  0
  8 51  1  0
 13 52  1  0
 13 53  1  0
 14 54  1  0
 14 55  1  0
 15 56  1  0
 15 57  1  0
 16 58  1  0
 16 59  1  0
 22 60  1  0
 22 61  1  0
 23 62  1  0
 23 63  1  0
 24 64  1  0
 24 65  1  0
 25 66  1  0
 25 67  1  0
 26 68  1  0
 26 69  1  0
 27 70  1  0
 30 71  1  0
 30 72  1  0
 31 73  1  0
 31 74  1  0
 32 75  1  0
 32 76  1  0
 33 77  1  0
 33 78  1  0
 38 79  1  0
 39 80  1  0
 40 81  1  0
 41 82  1  0
M  CHG  2  19  -1  20   1
M  END
>  <score>  (6) 
-11.919

$$$$
=
     RDKit          3D

 82 87  0  0  0  0  0  0  0  0999 V2000
    0.6950   66.4440   69.6500 C   0  0  0  0  0  0  0  0  0  0  0  0
    1.5240   67.5740   69.0280 C   0  0  0  0  0  0  0  0  0  0  0  0
    1.0280   68.0650   67.6650 C   0  0  0  0  0  0  0  0  0  0  0  0
    1.5030   69.4270   67.3930 N   0  0  0  0  0  0  0  0  0  0  0  0
    3.8470   68.6210   63.1880 C   0  0  0  0  0  0  0  0  0  0  0  0
    2.6810   68.2700   62.4980 C   0  0  0  0  0  0  0  0  0  0  0  0
    1.4800   68.2930   63.1840 C   0  0  0  0  0  0  0  0  0  0  0  0
    1.4710   68.6680   64.5290 C   0  0  0  0  0  0  0  0  0  0  0  0
    2.6580   69.0340   65.2250 C   0  0  0  0  0  0  0  0  0  0  0  0
    3.8900   69.0010   64.5290 C   0  0  0  0  0  0  0  0  0  0  0  0
    5.0600   69.3050   65.1280 N   0  0  0  0  0  0  0  0  0  0  0  0
    5.0580   69.6660   66.4260 C   0  0  0  0  0  0  0  0  0  0  0  0
    6.3850   69.9630   67.0740 C   0  0  0  0  0  0  0  0  0  0  0  0
    6.3010   71.2330   67.9170 C   0  0  0  0  0  0  0  0  0  0  0  0
    5.0430   71.3230   68.7930 C   0  0  0  0  0  0  0  0  0  0  0  0
    4.0680   70.1510   68.6420 C   0  0  0  0  0  0  0  0  0  0  0  0
    3.9070   69.7480   67.2000 C   0  0  0  0  0  0  0  0  0  0  0  0
    2.6810   69.4300   66.5960 C   0  0  0  0  0  0  0  0  0  0  0  0
    5.6020   67.4620   62.2900 O   0  0  0  0  0  1  0  0  0  0  0  0
    5.0850   68.5770   62.4530 N   0  0  0  0  0  4  0  0  0  0  0  0
    5.4860   69.6420   61.9620 O   0  0  0  0  0  0  0  0  0  0  0  0
    1.4630   65.3910   70.4540 C   0  0  0  0  0  0  0  0  0  0  0  0
    0.6090   64.3050   71.1180 C   0  0  0  0  0  0  0  0  0  0  0  0
    0.0780   64.6430   72.5140 C   0  0  0  0  0  0  0  0  0  0  0  0
    0.3770   63.6120   73.6080 C   0  0  0  0  0  0  0  0  0  0  0  0
    0.3220   62.1660   73.1110 C   0  0  0  0  0  0  0  0  0  0  0  0
    1.4110   61.3530   73.6760 N   0  0  0  0  0  0  0  0  0  0  0  0
    1.7470   60.1970   72.9290 C   0  0  0  0  0  0  0  0  0  0  0  0
    1.3680   58.9170   73.3650 C   0  0  0  0  0  0  0  0  0  0  0  0
    0.5370   58.6180   74.5870 C   0  0  0  0  0  0  0  0  0  0  0  0
   -0.5000   57.5250   74.3120 C   0  0  0  0  0  0  0  0  0  0  0  0
    0.0220   56.3370   73.4940 C   0  0  0  0  0  0  0  0  0  0  0  0
    1.5030   56.4310   73.1430 C   0  0  0  0  0  0  0  0  0  0  0  0
    1.8450   57.8140   72.6500 C   0  0  0  0  0  0  0  0  0  0  0  0
    2.6330   57.9040   71.5590 N   0  0  0  0  0  0  0  0  0  0  0  0
    2.9630   59.1230   71.1150 C   0  0  0  0  0  0  0  0  0  0  0  0
    2.5480   60.3110   71.7550 C   0  0  0  0  0  0  0  0  0  0  0  0
    2.9230   61.5500   71.1800 C   0  0  0  0  0  0  0  0  0  0  0  0
    3.7100   61.6130   70.0300 C   0  0  0  0  0  0  0  0  0  0  0  0
    4.1280   60.4380   69.4270 C   0  0  0  0  0  0  0  0  0  0  0  0
    3.7480   59.2100   69.9730 C   0  0  0  0  0  0  0  0  0  0  0  0
   -0.0438   66.9039   70.3228 H   0  0  0  0  0  0  0  0  0  0  0  0
    0.2630   65.8991   68.7977 H   0  0  0  0  0  0  0  0  0  0  0  0
    1.5137   68.4270   69.7225 H   0  0  0  0  0  0  0  0  0  0  0  0
    2.5294   67.1609   68.8590 H   0  0  0  0  0  0  0  0  0  0  0  0
    1.4024   67.3900   66.8813 H   0  0  0  0  0  0  0  0  0  0  0  0
   -0.0719   68.0721   67.6736 H   0  0  0  0  0  0  0  0  0  0  0  0
    1.0385   70.2791   67.7382 H   0  0  0  0  0  0  0  0  0  0  0  0
    2.7187   67.9830   61.4368 H   0  0  0  0  0  0  0  0  0  0  0  0
    0.5435   68.0192   62.6761 H   0  0  0  0  0  0  0  0  0  0  0  0
    0.5132   68.6811   65.0699 H   0  0  0  0  0  0  0  0  0  0  0  0
    6.6686   69.1189   67.7198 H   0  0  0  0  0  0  0  0  0  0  0  0
    7.1384   70.1104   66.2862 H   0  0  0  0  0  0  0  0  0  0  0  0
    7.1825   71.2703   68.5739 H   0  0  0  0  0  0  0  0  0  0  0  0
    6.2585   72.0778   67.2138 H   0  0  0  0  0  0  0  0  0  0  0  0
    5.3614   71.3695   69.8449 H   0  0  0  0  0  0  0  0  0  0  0  0
    4.5002   72.2210   68.4629 H   0  0  0  0  0  0  0  0  0  0  0  0
    4.4510   69.2919   69.2124 H   0  0  0  0  0  0  0  0  0  0  0  0
    3.0860   70.4683   69.0229 H   0  0  0  0  0  0  0  0  0  0  0  0
    2.1695   64.8949   69.7723 H   0  0  0  0  0  0  0  0  0  0  0  0
    1.9451   65.9374   71.2780 H   0  0  0  0  0  0  0  0  0  0  0  0
   -0.2546   64.1076   70.4659 H   0  0  0  0  0  0  0  0  0  0  0  0
    1.2734   63.4383   71.2502 H   0  0  0  0  0  0  0  0  0  0  0  0
    0.5230   65.6007   72.8218 H   0  0  0  0  0  0  0  0  0  0  0  0
   -1.0176   64.6693   72.4191 H   0  0  0  0  0  0  0  0  0  0  0  0
    1.3845   63.8064   74.0045 H   0  0  0  0  0  0  0  0  0  0  0  0
   -0.4008   63.7207   74.3782 H   0  0  0  0  0  0  0  0  0  0  0  0
   -0.6416   61.7246   73.4052 H   0  0  0  0  0  0  0  0  0  0  0  0
    0.4343   62.1756   72.0168 H   0  0  0  0  0  0  0  0  0  0  0  0
    1.8934   61.6059   74.5502 H   0  0  0  0  0  0  0  0  0  0  0  0
    1.2016   58.2834   75.3972 H   0  0  0  0  0  0  0  0  0  0  0  0
    0.0014   59.5359   74.8710 H   0  0  0  0  0  0  0  0  0  0  0  0
   -0.8601   57.1434   75.2788 H   0  0  0  0  0  0  0  0  0  0  0  0
   -1.2921   57.9931   73.7091 H   0  0  0  0  0  0  0  0  0  0  0  0
   -0.1380   55.4181   74.0771 H   0  0  0  0  0  0  0  0  0  0  0  0
   -0.5317   56.3361   72.5435 H   0  0  0  0  0  0  0  0  0  0  0  0
    2.1016   56.2082   74.0386 H   0  0  0  0  0  0  0  0  0  0  0  0
    1.7253   55.7057   72.3465 H   0  0  0  0  0  0  0  0  0  0  0  0
    2.5856   62.4848   71.6515 H   0  0  0  0  0  0  0  0  0  0  0  0
    3.9961   62.5868   69.6059 H   0  0  0  0  0  0  0  0  0  0  0  0
    4.7552   60.4720   68.5240 H   0  0  0  0  0  0  0  0  0  0  0  0
    4.0809   58.2830   69.4832 H   0  0  0  0  0  0  0  0  0  0  0  0
  2  1  1  0
  3  2  1  0
  4  3  1  0
  6  5  2  0
  7  6  1  0
  8  7  2  0
  9  8  1  0
 10  9  2  0
 10  5  1  0
 11 10  1  0
 12 11  2  0
 13 12  1  0
 14 13  1  0
 15 14  1  0
 16 15  1  0
 17 16  1  0
 17 12  1  0
 18 17  2  0
 18  9  1  0
 18  4  1  0
 20  5  1  0
 20 19  1  0
 21 20  2  0
 22  1  1  0
 23 22  1  0
 24 23  1  0
 25 24  1  0
 26 25  1  0
 27 26  1  0
 28 27  1  0
 29 28  1  0
 30 29  1  0
 31 30  1  0
 32 31  1  0
 33 32  1  0
 34 33  1  0
 34 29  2  0
 35 34  1  0
 36 35  2  0
 37 36  1  0
 37 28  2  0
 38 37  1  0
 39 38  2  0
 40 39  1  0
 41 40  2  0
 41 36  1  0
  1 42  1  0
  1 43  1  0
  2 44  1  0
  2 45  1  0
  3 46  1  0
  3 47  1  0
  4 48  1  0
  6 49  1  0
  7 50  1  0
  8 51  1  0
 13 52  1  0
 13 53  1  0
 14 54  1  0
 14 55  1  0
 15 56  1  0
 15 57  1  0
 16 58  1  0
 16 59  1  0
 22 60  1  0
 22 61  1  0
 23 62  1  0
 23 63  1  0
 24 64  1  0
 24 65  1  0
 25 66  1  0
 25 67  1  0
 26 68  1  0
 26 69  1  0
 27 70  1  0
 30 71  1  0
 30 72  1  0
 31 73  1  0
 31 74  1  0
 32 75  1  0
 32 76  1  0
 33 77  1  0
 33 78  1  0
 38 79  1  0
 39 80  1  0
 40 81  1  0
 41 82  1  0
M  CHG  2  19  -1  20   1
M  END
>  <score>  (7) 
-11.603

$$$$
=
     RDKit          3D

 82 87  0  0  0  0  0  0  0  0999 V2000
    4.4650   65.0680   64.2700 C   0  0  0  0  0  0  0  0  0  0  0  0
    3.7770   66.2430   63.5660 C   0  0  0  0  0  0  0  0  0  0  0  0
    4.5100   67.5830   63.6770 C   0  0  0  0  0  0  0  0  0  0  0  0
    3.5590   68.6930   63.8080 N   0  0  0  0  0  0  0  0  0  0  0  0
    4.9610   70.3800   68.1680 C   0  0  0  0  0  0  0  0  0  0  0  0
    6.2370   70.7410   67.7220 C   0  0  0  0  0  0  0  0  0  0  0  0
    6.5570   70.5150   66.3950 C   0  0  0  0  0  0  0  0  0  0  0  0
    5.6010   69.9460   65.5520 C   0  0  0  0  0  0  0  0  0  0  0  0
    4.2990   69.5890   66.0080 C   0  0  0  0  0  0  0  0  0  0  0  0
    3.9730   69.8080   67.3670 C   0  0  0  0  0  0  0  0  0  0  0  0
    2.7730   69.4700   67.8790 N   0  0  0  0  0  0  0  0  0  0  0  0
    1.8460   68.9160   67.0710 C   0  0  0  0  0  0  0  0  0  0  0  0
    0.5290   68.5160   67.6830 C   0  0  0  0  0  0  0  0  0  0  0  0
   -0.6320   68.9530   66.7940 C   0  0  0  0  0  0  0  0  0  0  0  0
   -0.4230   68.6660   65.3010 C   0  0  0  0  0  0  0  0  0  0  0  0
    0.9270   68.0340   64.9500 C   0  0  0  0  0  0  0  0  0  0  0  0
    2.0540   68.6710   65.7190 C   0  0  0  0  0  0  0  0  0  0  0  0
    3.2990   69.0130   65.1700 C   0  0  0  0  0  0  0  0  0  0  0  0
    5.5820   70.4540   70.3680 O   0  0  0  0  0  1  0  0  0  0  0  0
    4.6580   70.6160   69.5570 N   0  0  0  0  0  4  0  0  0  0  0  0
    3.5290   71.0510   69.8210 O   0  0  0  0  0  0  0  0  0  0  0  0
    3.5520   64.0450   64.9520 C   0  0  0  0  0  0  0  0  0  0  0  0
    4.1820   63.2490   66.1000 C   0  0  0  0  0  0  0  0  0  0  0  0
    3.4510   63.3330   67.4430 C   0  0  0  0  0  0  0  0  0  0  0  0
    4.2210   62.7990   68.6550 C   0  0  0  0  0  0  0  0  0  0  0  0
    3.4300   61.7760   69.4740 C   0  0  0  0  0  0  0  0  0  0  0  0
    3.4080   62.1210   70.9040 N   0  0  0  0  0  0  0  0  0  0  0  0
    2.1330   62.4530   71.4220 C   0  0  0  0  0  0  0  0  0  0  0  0
    1.6230   63.7580   71.3120 C   0  0  0  0  0  0  0  0  0  0  0  0
    2.2980   64.9050   70.6040 C   0  0  0  0  0  0  0  0  0  0  0  0
    1.3000   65.7280   69.7820 C   0  0  0  0  0  0  0  0  0  0  0  0
   -0.0340   66.0070   70.4860 C   0  0  0  0  0  0  0  0  0  0  0  0
   -0.1110   65.4570   71.9070 C   0  0  0  0  0  0  0  0  0  0  0  0
    0.4180   64.0460   71.9590 C   0  0  0  0  0  0  0  0  0  0  0  0
   -0.2940   63.1470   72.6690 N   0  0  0  0  0  0  0  0  0  0  0  0
    0.1680   61.8920   72.7440 C   0  0  0  0  0  0  0  0  0  0  0  0
    1.3740   61.4810   72.1380 C   0  0  0  0  0  0  0  0  0  0  0  0
    1.7510   60.1190   72.2470 C   0  0  0  0  0  0  0  0  0  0  0  0
    0.9780   59.2020   72.9580 C   0  0  0  0  0  0  0  0  0  0  0  0
   -0.1920   59.6270   73.5670 C   0  0  0  0  0  0  0  0  0  0  0  0
   -0.5840   60.9620   73.4500 C   0  0  0  0  0  0  0  0  0  0  0  0
    5.0625   64.5322   63.5177 H   0  0  0  0  0  0  0  0  0  0  0  0
    5.0502   65.5211   65.0838 H   0  0  0  0  0  0  0  0  0  0  0  0
    3.6822   65.9933   62.4989 H   0  0  0  0  0  0  0  0  0  0  0  0
    2.8090   66.3794   64.0703 H   0  0  0  0  0  0  0  0  0  0  0  0
    5.1639   67.5632   64.5613 H   0  0  0  0  0  0  0  0  0  0  0  0
    5.1027   67.7352   62.7629 H   0  0  0  0  0  0  0  0  0  0  0  0
    3.1307   69.1822   63.0092 H   0  0  0  0  0  0  0  0  0  0  0  0
    6.9674   71.1931   68.4090 H   0  0  0  0  0  0  0  0  0  0  0  0
    7.5523   70.7804   66.0092 H   0  0  0  0  0  0  0  0  0  0  0  0
    5.8619   69.7669   64.4985 H   0  0  0  0  0  0  0  0  0  0  0  0
    0.5024   67.4226   67.8007 H   0  0  0  0  0  0  0  0  0  0  0  0
    0.4297   69.0070   68.6623 H   0  0  0  0  0  0  0  0  0  0  0  0
   -1.5377   68.4229   67.1238 H   0  0  0  0  0  0  0  0  0  0  0  0
   -0.7161   70.0449   66.8975 H   0  0  0  0  0  0  0  0  0  0  0  0
   -1.2176   67.9811   64.9700 H   0  0  0  0  0  0  0  0  0  0  0  0
   -0.4495   69.6409   64.7922 H   0  0  0  0  0  0  0  0  0  0  0  0
    0.8923   66.9612   65.1906 H   0  0  0  0  0  0  0  0  0  0  0  0
    1.1113   68.1902   63.8769 H   0  0  0  0  0  0  0  0  0  0  0  0
    2.6814   64.5845   65.3534 H   0  0  0  0  0  0  0  0  0  0  0  0
    3.3020   63.3049   64.1775 H   0  0  0  0  0  0  0  0  0  0  0  0
    4.2169   62.1915   65.7993 H   0  0  0  0  0  0  0  0  0  0  0  0
    5.1726   63.6966   66.2682 H   0  0  0  0  0  0  0  0  0  0  0  0
    3.2138   64.3902   67.6327 H   0  0  0  0  0  0  0  0  0  0  0  0
    2.5661   62.6873   67.3427 H   0  0  0  0  0  0  0  0  0  0  0  0
    5.1451   62.3208   68.2982 H   0  0  0  0  0  0  0  0  0  0  0  0
    4.4246   63.6558   69.3141 H   0  0  0  0  0  0  0  0  0  0  0  0
    2.3962   61.7428   69.0997 H   0  0  0  0  0  0  0  0  0  0  0  0
    3.9211   60.7977   69.3656 H   0  0  0  0  0  0  0  0  0  0  0  0
    4.2580   62.1210   71.4857 H   0  0  0  0  0  0  0  0  0  0  0  0
    2.7686   65.5591   71.3528 H   0  0  0  0  0  0  0  0  0  0  0  0
    3.0495   64.4898   69.9164 H   0  0  0  0  0  0  0  0  0  0  0  0
    1.7686   66.6935   69.5408 H   0  0  0  0  0  0  0  0  0  0  0  0
    1.0618   65.1281   68.8913 H   0  0  0  0  0  0  0  0  0  0  0  0
   -0.1822   67.0962   70.5279 H   0  0  0  0  0  0  0  0  0  0  0  0
   -0.8149   65.4961   69.9036 H   0  0  0  0  0  0  0  0  0  0  0  0
    0.4895   66.0931   72.5739 H   0  0  0  0  0  0  0  0  0  0  0  0
   -1.1626   65.4537   72.2296 H   0  0  0  0  0  0  0  0  0  0  0  0
    2.6757   59.7773   71.7589 H   0  0  0  0  0  0  0  0  0  0  0  0
    1.2939   58.1511   73.0348 H   0  0  0  0  0  0  0  0  0  0  0  0
   -0.8079   58.9173   74.1388 H   0  0  0  0  0  0  0  0  0  0  0  0
   -1.5177   61.2873   73.9321 H   0  0  0  0  0  0  0  0  0  0  0  0
  2  1  1  0
  3  2  1  0
  4  3  1  0
  6  5  2  0
  7  6  1  0
  8  7  2  0
  9  8  1  0
 10  9  2  0
 10  5  1  0
 11 10  1  0
 12 11  2  0
 13 12  1  0
 14 13  1  0
 15 14  1  0
 16 15  1  0
 17 16  1  0
 17 12  1  0
 18 17  2  0
 18  9  1  0
 18  4  1  0
 20  5  1  0
 20 19  1  0
 21 20  2  0
 22  1  1  0
 23 22  1  0
 24 23  1  0
 25 24  1  0
 26 25  1  0
 27 26  1  0
 28 27  1  0
 29 28  1  0
 30 29  1  0
 31 30  1  0
 32 31  1  0
 33 32  1  0
 34 33  1  0
 34 29  2  0
 35 34  1  0
 36 35  2  0
 37 36  1  0
 37 28  2  0
 38 37  1  0
 39 38  2  0
 40 39  1  0
 41 40  2  0
 41 36  1  0
  1 42  1  0
  1 43  1  0
  2 44  1  0
  2 45  1  0
  3 46  1  0
  3 47  1  0
  4 48  1  0
  6 49  1  0
  7 50  1  0
  8 51  1  0
 13 52  1  0
 13 53  1  0
 14 54  1  0
 14 55  1  0
 15 56  1  0
 15 57  1  0
 16 58  1  0
 16 59  1  0
 22 60  1  0
 22 61  1  0
 23 62  1  0
 23 63  1  0
 24 64  1  0
 24 65  1  0
 25 66  1  0
 25 67  1  0
 26 68  1  0
 26 69  1  0
 27 70  1  0
 30 71  1  0
 30 72  1  0
 31 73  1  0
 31 74  1  0
 32 75  1  0
 32 76  1  0
 33 77  1  0
 33 78  1  0
 38 79  1  0
 39 80  1  0
 40 81  1  0
 41 82  1  0
M  CHG  2  19  -1  20   1
M  END
>  <score>  (8) 
-11.459

$$$$
=
     RDKit          3D

 82 87  0  0  0  0  0  0  0  0999 V2000
    2.3910   64.5100   70.5980 C   0  0  0  0  0  0  0  0  0  0  0  0
    2.7470   63.2710   69.7670 C   0  0  0  0  0  0  0  0  0  0  0  0
    2.6010   61.9360   70.5020 C   0  0  0  0  0  0  0  0  0  0  0  0
    3.2530   61.9860   71.8160 N   0  0  0  0  0  0  0  0  0  0  0  0
    0.4050   61.6900   75.7690 C   0  0  0  0  0  0  0  0  0  0  0  0
    0.2290   63.0760   75.8600 C   0  0  0  0  0  0  0  0  0  0  0  0
    0.8430   63.8790   74.9160 C   0  0  0  0  0  0  0  0  0  0  0  0
    1.6050   63.2850   73.9090 C   0  0  0  0  0  0  0  0  0  0  0  0
    1.7740   61.8740   73.8140 C   0  0  0  0  0  0  0  0  0  0  0  0
    1.1570   61.0500   74.7850 C   0  0  0  0  0  0  0  0  0  0  0  0
    1.2940   59.7090   74.7780 N   0  0  0  0  0  0  0  0  0  0  0  0
    2.0320   59.1290   73.8110 C   0  0  0  0  0  0  0  0  0  0  0  0
    2.1960   57.6320   73.8540 C   0  0  0  0  0  0  0  0  0  0  0  0
    2.0040   57.0290   72.4650 C   0  0  0  0  0  0  0  0  0  0  0  0
    2.7220   57.7930   71.3430 C   0  0  0  0  0  0  0  0  0  0  0  0
    3.4690   59.0500   71.7980 C   0  0  0  0  0  0  0  0  0  0  0  0
    2.6680   59.8390   72.8000 C   0  0  0  0  0  0  0  0  0  0  0  0
    2.5400   61.2360   72.7930 C   0  0  0  0  0  0  0  0  0  0  0  0
    0.4390   60.5790   77.7670 O   0  0  0  0  0  1  0  0  0  0  0  0
   -0.2360   60.8790   76.7720 N   0  0  0  0  0  4  0  0  0  0  0  0
   -1.4370   60.6240   76.6070 O   0  0  0  0  0  0  0  0  0  0  0  0
    0.9120   64.7040   70.9430 C   0  0  0  0  0  0  0  0  0  0  0  0
    0.1940   65.8290   70.1890 C   0  0  0  0  0  0  0  0  0  0  0  0
    1.1050   66.8510   69.5010 C   0  0  0  0  0  0  0  0  0  0  0  0
    0.5040   67.5680   68.2880 C   0  0  0  0  0  0  0  0  0  0  0  0
    1.4140   67.5440   67.0570 C   0  0  0  0  0  0  0  0  0  0  0  0
    1.6660   68.8970   66.5390 N   0  0  0  0  0  0  0  0  0  0  0  0
    2.9850   69.1260   66.0740 C   0  0  0  0  0  0  0  0  0  0  0  0
    3.3750   68.7370   64.7820 C   0  0  0  0  0  0  0  0  0  0  0  0
    2.4750   68.1180   63.7430 C   0  0  0  0  0  0  0  0  0  0  0  0
    2.7320   68.7030   62.3510 C   0  0  0  0  0  0  0  0  0  0  0  0
    4.2130   68.8860   61.9960 C   0  0  0  0  0  0  0  0  0  0  0  0
    5.1730   68.4020   63.0780 C   0  0  0  0  0  0  0  0  0  0  0  0
    4.7230   68.8750   64.4370 C   0  0  0  0  0  0  0  0  0  0  0  0
    5.6680   69.3720   65.2610 N   0  0  0  0  0  0  0  0  0  0  0  0
    5.2930   69.7820   66.4790 C   0  0  0  0  0  0  0  0  0  0  0  0
    3.9630   69.6890   66.9450 C   0  0  0  0  0  0  0  0  0  0  0  0
    3.6680   70.1860   68.2380 C   0  0  0  0  0  0  0  0  0  0  0  0
    4.6590   70.7280   69.0560 C   0  0  0  0  0  0  0  0  0  0  0  0
    5.9630   70.7910   68.5930 C   0  0  0  0  0  0  0  0  0  0  0  0
    6.2640   70.3220   67.3130 C   0  0  0  0  0  0  0  0  0  0  0  0
    2.9488   64.4485   71.5441 H   0  0  0  0  0  0  0  0  0  0  0  0
    2.6554   65.3693   69.9642 H   0  0  0  0  0  0  0  0  0  0  0  0
    2.0881   63.2497   68.8864 H   0  0  0  0  0  0  0  0  0  0  0  0
    3.8128   63.3671   69.5123 H   0  0  0  0  0  0  0  0  0  0  0  0
    1.5320   61.7155   70.6388 H   0  0  0  0  0  0  0  0  0  0  0  0
    3.0823   61.1502   69.9012 H   0  0  0  0  0  0  0  0  0  0  0  0
    4.1232   62.5025   72.0082 H   0  0  0  0  0  0  0  0  0  0  0  0
   -0.3823   63.5153   76.6621 H   0  0  0  0  0  0  0  0  0  0  0  0
    0.7320   64.9726   74.9584 H   0  0  0  0  0  0  0  0  0  0  0  0
    2.0923   63.9292   73.1623 H   0  0  0  0  0  0  0  0  0  0  0  0
    3.2058   57.3895   74.2167 H   0  0  0  0  0  0  0  0  0  0  0  0
    1.4369   57.2120   74.5303 H   0  0  0  0  0  0  0  0  0  0  0  0
    2.3871   55.9980   72.4804 H   0  0  0  0  0  0  0  0  0  0  0  0
    0.9276   57.0801   72.2440 H   0  0  0  0  0  0  0  0  0  0  0  0
    3.4497   57.1124   70.8769 H   0  0  0  0  0  0  0  0  0  0  0  0
    1.9388   58.1324   70.6491 H   0  0  0  0  0  0  0  0  0  0  0  0
    4.4223   58.7516   72.2586 H   0  0  0  0  0  0  0  0  0  0  0  0
    3.6403   59.6861   70.9171 H   0  0  0  0  0  0  0  0  0  0  0  0
    0.3877   63.7622   70.7235 H   0  0  0  0  0  0  0  0  0  0  0  0
    0.8877   64.9922   72.0043 H   0  0  0  0  0  0  0  0  0  0  0  0
   -0.4408   65.3682   69.4178 H   0  0  0  0  0  0  0  0  0  0  0  0
   -0.3677   66.3906   70.9499 H   0  0  0  0  0  0  0  0  0  0  0  0
    1.3772   67.6149   70.2442 H   0  0  0  0  0  0  0  0  0  0  0  0
    1.9609   66.2774   69.1158 H   0  0  0  0  0  0  0  0  0  0  0  0
   -0.4465   67.0786   68.0289 H   0  0  0  0  0  0  0  0  0  0  0  0
    0.3648   68.6223   68.5692 H   0  0  0  0  0  0  0  0  0  0  0  0
    2.3742   67.0835   67.3327 H   0  0  0  0  0  0  0  0  0  0  0  0
    0.9098   66.9644   66.2697 H   0  0  0  0  0  0  0  0  0  0  0  0
    0.9375   69.6247   66.5158 H   0  0  0  0  0  0  0  0  0  0  0  0
    2.6576   67.0337   63.7134 H   0  0  0  0  0  0  0  0  0  0  0  0
    1.4324   68.3344   64.0191 H   0  0  0  0  0  0  0  0  0  0  0  0
    2.2823   68.0285   61.6075 H   0  0  0  0  0  0  0  0  0  0  0  0
    2.2856   69.7084   62.3493 H   0  0  0  0  0  0  0  0  0  0  0  0
    4.4198   68.3242   61.0732 H   0  0  0  0  0  0  0  0  0  0  0  0
    4.3820   69.9667   61.8798 H   0  0  0  0  0  0  0  0  0  0  0  0
    5.2026   67.3024   63.0695 H   0  0  0  0  0  0  0  0  0  0  0  0
    6.1733   68.8112   62.8734 H   0  0  0  0  0  0  0  0  0  0  0  0
    2.6322   70.1435   68.6059 H   0  0  0  0  0  0  0  0  0  0  0  0
    4.4075   71.1020   70.0594 H   0  0  0  0  0  0  0  0  0  0  0  0
    6.7567   71.2081   69.2302 H   0  0  0  0  0  0  0  0  0  0  0  0
    7.3020   70.3819   66.9537 H   0  0  0  0  0  0  0  0  0  0  0  0
  2  1  1  0
  3  2  1  0
  4  3  1  0
  6  5  2  0
  7  6  1  0
  8  7  2  0
  9  8  1  0
 10  9  2  0
 10  5  1  0
 11 10  1  0
 12 11  2  0
 13 12  1  0
 14 13  1  0
 15 14  1  0
 16 15  1  0
 17 16  1  0
 17 12  1  0
 18 17  2  0
 18  9  1  0
 18  4  1  0
 20  5  1  0
 20 19  1  0
 21 20  2  0
 22  1  1  0
 23 22  1  0
 24 23  1  0
 25 24  1  0
 26 25  1  0
 27 26  1  0
 28 27  1  0
 29 28  1  0
 30 29  1  0
 31 30  1  0
 32 31  1  0
 33 32  1  0
 34 33  1  0
 34 29  2  0
 35 34  1  0
 36 35  2  0
 37 36  1  0
 37 28  2  0
 38 37  1  0
 39 38  2  0
 40 39  1  0
 41 40  2  0
 41 36  1  0
  1 42  1  0
  1 43  1  0
  2 44  1  0
  2 45  1  0
  3 46  1  0
  3 47  1  0
  4 48  1  0
  6 49  1  0
  7 50  1  0
  8 51  1  0
 13 52  1  0
 13 53  1  0
 14 54  1  0
 14 55  1  0
 15 56  1  0
 15 57  1  0
 16 58  1  0
 16 59  1  0
 22 60  1  0
 22 61  1  0
 23 62  1  0
 23 63  1  0
 24 64  1  0
 24 65  1  0
 25 66  1  0
 25 67  1  0
 26 68  1  0
 26 69  1  0
 27 70  1  0
 30 71  1  0
 30 72  1  0
 31 73  1  0
 31 74  1  0
 32 75  1  0
 32 76  1  0
 33 77  1  0
 33 78  1  0
 38 79  1  0
 39 80  1  0
 40 81  1  0
 41 82  1  0
M  CHG  2  19  -1  20   1
M  END
>  <score>  (9) 
-11.284

$$$$
