=
     RDKit          3D

 51 53  0  0  0  0  0  0  0  0999 V2000
   -0.4440   67.3390   67.6450 C   0  0  0  0  0  0  0  0  0  0  0  0
   -0.6470   66.3940   68.8310 C   0  0  0  0  0  0  0  0  0  0  0  0
    0.5470   66.4180   69.7940 C   0  0  0  0  0  0  0  0  0  0  0  0
    0.3790   65.5130   71.0160 C   0  0  0  0  0  0  0  0  0  0  0  0
    0.3620   63.7270   70.6610 S   0  0  0  0  0  0  0  0  0  0  0  0
    0.9890   63.0940   73.4740 S   0  0  0  0  0  0  0  0  0  0  0  0
    1.5150   63.1640   71.8750 C   0  0  0  0  0  0  0  0  0  0  0  0
    2.7960   62.8100   71.4170 N   0  0  0  0  0  0  0  0  0  0  0  0
    3.4390   61.5450   71.8020 C   0  0  0  0  0  0  0  0  0  0  0  0
    3.3530   60.5370   70.6570 C   0  0  0  0  0  0  0  0  0  0  0  0
    3.9570   61.1150   69.3760 C   0  0  0  0  0  0  0  0  0  0  0  0
    3.3680   62.4900   69.0480 C   0  0  0  0  0  0  0  0  0  0  0  0
    3.4530   63.4280   70.2540 C   0  0  0  0  0  0  0  0  0  0  0  0
    0.3090   68.4940   68.0110 O   0  0  0  0  0  0  0  0  0  0  0  0
    1.4610   68.7790   67.3350 C   0  0  0  0  0  0  0  0  0  0  0  0
    1.7350   68.4860   66.0000 C   0  0  0  0  0  0  0  0  0  0  0  0
    2.9710   68.8360   65.4310 C   0  0  0  0  0  0  0  0  0  0  0  0
    3.9530   69.4830   66.1860 C   0  0  0  0  0  0  0  0  0  0  0  0
    3.6580   69.7640   67.5200 C   0  0  0  0  0  0  0  0  0  0  0  0
    2.4350   69.4230   68.0970 C   0  0  0  0  0  0  0  0  0  0  0  0
    4.5860   70.4100   68.3600 O   0  0  0  0  0  0  0  0  0  0  0  0
    5.8300   70.7900   67.8870 C   0  0  0  0  0  0  0  0  0  0  0  0
    6.6590   71.3510   68.5940 O   0  0  0  0  0  0  0  0  0  0  0  0
    6.1270   70.4900   66.4780 C   0  0  0  0  0  0  0  0  0  0  0  0
    5.2650   69.8760   65.6540 C   0  0  0  0  0  0  0  0  0  0  0  0
    5.6160   69.5920   64.2240 C   0  0  0  0  0  0  0  0  0  0  0  0
    0.0926   66.8015   66.8492 H   0  0  0  0  0  0  0  0  0  0  0  0
   -1.4339   67.6715   67.2993 H   0  0  0  0  0  0  0  0  0  0  0  0
   -1.5511   66.6995   69.3781 H   0  0  0  0  0  0  0  0  0  0  0  0
   -0.7470   65.3714   68.4382 H   0  0  0  0  0  0  0  0  0  0  0  0
    1.4421   66.0931   69.2434 H   0  0  0  0  0  0  0  0  0  0  0  0
    0.6319   67.4482   70.1701 H   0  0  0  0  0  0  0  0  0  0  0  0
    1.2114   65.7150   71.7061 H   0  0  0  0  0  0  0  0  0  0  0  0
   -0.6088   65.7499   71.4381 H   0  0  0  0  0  0  0  0  0  0  0  0
    4.4960   61.7332   72.0412 H   0  0  0  0  0  0  0  0  0  0  0  0
    2.9215   61.1333   72.6810 H   0  0  0  0  0  0  0  0  0  0  0  0
    3.9037   59.6266   70.9362 H   0  0  0  0  0  0  0  0  0  0  0  0
    2.2940   60.3034   70.4726 H   0  0  0  0  0  0  0  0  0  0  0  0
    5.0447   61.2141   69.5069 H   0  0  0  0  0  0  0  0  0  0  0  0
    3.7229   60.4325   68.5457 H   0  0  0  0  0  0  0  0  0  0  0  0
    3.9286   62.9303   68.2102 H   0  0  0  0  0  0  0  0  0  0  0  0
    2.3090   62.3613   68.7796 H   0  0  0  0  0  0  0  0  0  0  0  0
    4.5094   63.6212   70.4920 H   0  0  0  0  0  0  0  0  0  0  0  0
    2.9469   64.3744   70.0129 H   0  0  0  0  0  0  0  0  0  0  0  0
    0.9771   67.9765   65.3868 H   0  0  0  0  0  0  0  0  0  0  0  0
    3.1687   68.5972   64.3756 H   0  0  0  0  0  0  0  0  0  0  0  0
    2.2389   69.6620   69.1527 H   0  0  0  0  0  0  0  0  0  0  0  0
    7.1086   70.7850   66.0787 H   0  0  0  0  0  0  0  0  0  0  0  0
    6.4706   68.9005   64.1866 H   0  0  0  0  0  0  0  0  0  0  0  0
    4.7525   69.1354   63.7182 H   0  0  0  0  0  0  0  0  0  0  0  0
    5.8824   70.5318   63.7182 H   0  0  0  0  0  0  0  0  0  0  0  0
  2  1  1  0
  3  2  1  0
  4  3  1  0
  5  4  1  0
  7  5  1  0
  7  6  2  0
  8  7  1  0
  9  8  1  0
 10  9  1  0
 11 10  1  0
 12 11  1  0
 13 12  1  0
 13  8  1  0
 14  1  1  0
 15 14  1  0
 16 15  2  0
 17 16  1  0
 18 17  2  0
 19 18  1  0
 20 19  2  0
 20 15  1  0
 21 19  1  0
 22 21  1  0
 23 22  2  0
 24 22  1  0
 25 18  1  0
 25 24  2  0
 26 25  1  0
  1 27  1  0
  1 28  1  0
  2 29  1  0
  2 30  1  0
  3 31  1  0
  3 32  1  0
  4 33  1  0
  4 34  1  0
  9 35  1  0
  9 36  1  0
 10 37  1  0
 10 38  1  0
 11 39  1  0
 11 40  1  0
 12 41  1  0
 12 42  1  0
 13 43  1  0
 13 44  1  0
 16 45  1  0
 17 46  1  0
 20 47  1  0
 24 48  1  0
 26 49  1  0
 26 50  1  0
 26 51  1  0
M  END
>  <score>  (1) 
-9.798

$$$$
=
     RDKit          3D

 51 53  0  0  0  0  0  0  0  0999 V2000
   -0.0280   67.2200   68.2830 C   0  0  0  0  0  0  0  0  0  0  0  0
    0.9380   66.6710   69.3350 C   0  0  0  0  0  0  0  0  0  0  0  0
    0.2490   65.6870   70.2880 C   0  0  0  0  0  0  0  0  0  0  0  0
    1.2070   64.7130   70.9770 C   0  0  0  0  0  0  0  0  0  0  0  0
    0.4560   63.1470   71.5250 S   0  0  0  0  0  0  0  0  0  0  0  0
    1.8410   62.3270   73.9980 S   0  0  0  0  0  0  0  0  0  0  0  0
    1.8490   62.4020   72.3150 C   0  0  0  0  0  0  0  0  0  0  0  0
    2.8700   61.9200   71.4790 N   0  0  0  0  0  0  0  0  0  0  0  0
    2.5800   61.1820   70.2400 C   0  0  0  0  0  0  0  0  0  0  0  0
    2.7670   62.0900   69.0260 C   0  0  0  0  0  0  0  0  0  0  0  0
    4.1720   62.6960   69.0100 C   0  0  0  0  0  0  0  0  0  0  0  0
    4.5130   63.3580   70.3480 C   0  0  0  0  0  0  0  0  0  0  0  0
    4.2610   62.4020   71.5170 C   0  0  0  0  0  0  0  0  0  0  0  0
    0.2410   68.5880   67.9790 O   0  0  0  0  0  0  0  0  0  0  0  0
    1.4970   68.9470   67.5840 C   0  0  0  0  0  0  0  0  0  0  0  0
    2.4860   69.5230   68.3800 C   0  0  0  0  0  0  0  0  0  0  0  0
    3.7410   69.8470   67.8370 C   0  0  0  0  0  0  0  0  0  0  0  0
    4.0290   69.6000   66.4910 C   0  0  0  0  0  0  0  0  0  0  0  0
    3.0240   69.0260   65.7130 C   0  0  0  0  0  0  0  0  0  0  0  0
    1.7730   68.7000   66.2400 C   0  0  0  0  0  0  0  0  0  0  0  0
    3.2190   68.7440   64.3470 O   0  0  0  0  0  0  0  0  0  0  0  0
    4.4220   69.0300   63.7270 C   0  0  0  0  0  0  0  0  0  0  0  0
    4.6200   68.7990   62.5390 O   0  0  0  0  0  0  0  0  0  0  0  0
    5.4730   69.6340   64.5580 C   0  0  0  0  0  0  0  0  0  0  0  0
    5.3180   69.9140   65.8610 C   0  0  0  0  0  0  0  0  0  0  0  0
    6.4230   70.5300   66.6670 C   0  0  0  0  0  0  0  0  0  0  0  0
    0.0713   66.6247   67.3633 H   0  0  0  0  0  0  0  0  0  0  0  0
   -1.0484   67.1541   68.6884 H   0  0  0  0  0  0  0  0  0  0  0  0
    1.7626   66.1524   68.8240 H   0  0  0  0  0  0  0  0  0  0  0  0
    1.3096   67.5179   69.9306 H   0  0  0  0  0  0  0  0  0  0  0  0
   -0.2733   66.2656   71.0642 H   0  0  0  0  0  0  0  0  0  0  0  0
   -0.4367   65.0807   69.6779 H   0  0  0  0  0  0  0  0  0  0  0  0
    2.0159   64.4741   70.2709 H   0  0  0  0  0  0  0  0  0  0  0  0
    1.5561   65.2204   71.8884 H   0  0  0  0  0  0  0  0  0  0  0  0
    3.2637   60.3240   70.1602 H   0  0  0  0  0  0  0  0  0  0  0  0
    1.5376   60.8318   70.2677 H   0  0  0  0  0  0  0  0  0  0  0  0
    2.6182   61.5009   68.1091 H   0  0  0  0  0  0  0  0  0  0  0  0
    2.0321   62.9067   69.0808 H   0  0  0  0  0  0  0  0  0  0  0  0
    4.9028   61.8988   68.8091 H   0  0  0  0  0  0  0  0  0  0  0  0
    4.2068   63.4660   68.2252 H   0  0  0  0  0  0  0  0  0  0  0  0
    5.5737   63.6492   70.3445 H   0  0  0  0  0  0  0  0  0  0  0  0
    3.8695   64.2412   70.4744 H   0  0  0  0  0  0  0  0  0  0  0  0
    4.9463   61.5449   71.4415 H   0  0  0  0  0  0  0  0  0  0  0  0
    4.4343   62.9341   72.4640 H   0  0  0  0  0  0  0  0  0  0  0  0
    2.2823   69.7255   69.4418 H   0  0  0  0  0  0  0  0  0  0  0  0
    4.5085   70.3018   68.4805 H   0  0  0  0  0  0  0  0  0  0  0  0
    1.0051   68.2483   65.5948 H   0  0  0  0  0  0  0  0  0  0  0  0
    6.4386   69.8691   64.0864 H   0  0  0  0  0  0  0  0  0  0  0  0
    6.2064   70.4092   67.7387 H   0  0  0  0  0  0  0  0  0  0  0  0
    7.3738   70.0318   66.4267 H   0  0  0  0  0  0  0  0  0  0  0  0
    6.4991   71.6007   66.4267 H   0  0  0  0  0  0  0  0  0  0  0  0
  2  1  1  0
  3  2  1  0
  4  3  1  0
  5  4  1  0
  7  5  1  0
  7  6  2  0
  8  7  1  0
  9  8  1  0
 10  9  1  0
 11 10  1  0
 12 11  1  0
 13 12  1  0
 13  8  1  0
 14  1  1  0
 15 14  1  0
 16 15  2  0
 17 16  1  0
 18 17  2  0
 19 18  1  0
 20 19  2  0
 20 15  1  0
 21 19  1  0
 22 21  1  0
 23 22  2  0
 24 22  1  0
 25 18  1  0
 25 24  2  0
 26 25  1  0
  1 27  1  0
  1 28  1  0
  2 29  1  0
  2 30  1  0
  3 31  1  0
  3 32  1  0
  4 33  1  0
  4 34  1  0
  9 35  1  0
  9 36  1  0
 10 37  1  0
 10 38  1  0
 11 39  1  0
 11 40  1  0
 12 41  1  0
 12 42  1  0
 13 43  1  0
 13 44  1  0
 16 45  1  0
 17 46  1  0
 20 47  1  0
 24 48  1  0
 26 49  1  0
 26 50  1  0
 26 51  1  0
M  END
>  <score>  (2) 
-9.581

$$$$
=
     RDKit          3D

 51 53  0  0  0  0  0  0  0  0999 V2000
   -0.3830   67.2140   68.3000 C   0  0  0  0  0  0  0  0  0  0  0  0
    0.7640   66.7080   69.1750 C   0  0  0  0  0  0  0  0  0  0  0  0
    0.2570   65.8880   70.3680 C   0  0  0  0  0  0  0  0  0  0  0  0
    0.8280   64.4690   70.4360 C   0  0  0  0  0  0  0  0  0  0  0  0
    2.6080   64.3680   70.8040 S   0  0  0  0  0  0  0  0  0  0  0  0
    3.5690   62.7180   68.5540 S   0  0  0  0  0  0  0  0  0  0  0  0
    2.9690   62.7770   70.1270 C   0  0  0  0  0  0  0  0  0  0  0  0
    2.7290   61.6660   70.9540 N   0  0  0  0  0  0  0  0  0  0  0  0
    3.3290   60.3500   70.6850 C   0  0  0  0  0  0  0  0  0  0  0  0
    4.5080   60.1040   71.6260 C   0  0  0  0  0  0  0  0  0  0  0  0
    4.0780   60.2440   73.0870 C   0  0  0  0  0  0  0  0  0  0  0  0
    3.3450   61.5660   73.3320 C   0  0  0  0  0  0  0  0  0  0  0  0
    2.2070   61.7610   72.3280 C   0  0  0  0  0  0  0  0  0  0  0  0
   -0.1060   68.5050   67.7570 O   0  0  0  0  0  0  0  0  0  0  0  0
    1.0860   68.7200   67.1280 C   0  0  0  0  0  0  0  0  0  0  0  0
    1.4030   68.3880   65.8120 C   0  0  0  0  0  0  0  0  0  0  0  0
    2.6790   68.6660   65.2930 C   0  0  0  0  0  0  0  0  0  0  0  0
    3.6590   69.2780   66.0800 C   0  0  0  0  0  0  0  0  0  0  0  0
    3.3210   69.5980   67.3950 C   0  0  0  0  0  0  0  0  0  0  0  0
    2.0570   69.3280   67.9220 C   0  0  0  0  0  0  0  0  0  0  0  0
    4.2430   70.2130   68.2650 O   0  0  0  0  0  0  0  0  0  0  0  0
    5.5230   70.5220   67.8420 C   0  0  0  0  0  0  0  0  0  0  0  0
    6.3470   71.0550   68.5760 O   0  0  0  0  0  0  0  0  0  0  0  0
    5.8660   70.1810   66.4530 C   0  0  0  0  0  0  0  0  0  0  0  0
    5.0110   69.5960   65.6010 C   0  0  0  0  0  0  0  0  0  0  0  0
    5.4090   69.2680   64.1930 C   0  0  0  0  0  0  0  0  0  0  0  0
   -0.5390   66.5058   67.4729 H   0  0  0  0  0  0  0  0  0  0  0  0
   -1.2828   67.2930   68.9278 H   0  0  0  0  0  0  0  0  0  0  0  0
    1.4245   66.0752   68.5640 H   0  0  0  0  0  0  0  0  0  0  0  0
    1.3033   67.5825   69.5680 H   0  0  0  0  0  0  0  0  0  0  0  0
    0.5322   66.4163   71.2928 H   0  0  0  0  0  0  0  0  0  0  0  0
   -0.8315   65.7875   70.2455 H   0  0  0  0  0  0  0  0  0  0  0  0
    0.2863   63.9213   71.2212 H   0  0  0  0  0  0  0  0  0  0  0  0
    0.6985   64.0389   69.4319 H   0  0  0  0  0  0  0  0  0  0  0  0
    2.5717   59.5672   70.8393 H   0  0  0  0  0  0  0  0  0  0  0  0
    3.6887   60.3257   69.6457 H   0  0  0  0  0  0  0  0  0  0  0  0
    4.8953   59.0879   71.4603 H   0  0  0  0  0  0  0  0  0  0  0  0
    5.2876   60.8510   71.4157 H   0  0  0  0  0  0  0  0  0  0  0  0
    3.4075   59.4106   73.3437 H   0  0  0  0  0  0  0  0  0  0  0  0
    4.9806   60.2282   73.7155 H   0  0  0  0  0  0  0  0  0  0  0  0
    2.9287   61.5623   74.3502 H   0  0  0  0  0  0  0  0  0  0  0  0
    4.0628   62.3905   73.2099 H   0  0  0  0  0  0  0  0  0  0  0  0
    1.4458   60.9823   72.4837 H   0  0  0  0  0  0  0  0  0  0  0  0
    1.7586   62.7543   72.4772 H   0  0  0  0  0  0  0  0  0  0  0  0
    0.6482   67.9044   65.1744 H   0  0  0  0  0  0  0  0  0  0  0  0
    2.9102   68.3979   64.2515 H   0  0  0  0  0  0  0  0  0  0  0  0
    1.8271   69.5951   68.9640 H   0  0  0  0  0  0  0  0  0  0  0  0
    6.8781   70.4185   66.0936 H   0  0  0  0  0  0  0  0  0  0  0  0
    6.2578   68.5685   64.2054 H   0  0  0  0  0  0  0  0  0  0  0  0
    4.5594   68.8044   63.6704 H   0  0  0  0  0  0  0  0  0  0  0  0
    5.7018   70.1906   63.6704 H   0  0  0  0  0  0  0  0  0  0  0  0
  2  1  1  0
  3  2  1  0
  4  3  1  0
  5  4  1  0
  7  5  1  0
  7  6  2  0
  8  7  1  0
  9  8  1  0
 10  9  1  0
 11 10  1  0
 12 11  1  0
 13 12  1  0
 13  8  1  0
 14  1  1  0
 15 14  1  0
 16 15  2  0
 17 16  1  0
 18 17  2  0
 19 18  1  0
 20 19  2  0
 20 15  1  0
 21 19  1  0
 22 21  1  0
 23 22  2  0
 24 22  1  0
 25 18  1  0
 25 24  2  0
 26 25  1  0
  1 27  1  0
  1 28  1  0
  2 29  1  0
  2 30  1  0
  3 31  1  0
  3 32  1  0
  4 33  1  0
  4 34  1  0
  9 35  1  0
  9 36  1  0
 10 37  1  0
 10 38  1  0
 11 39  1  0
 11 40  1  0
 12 41  1  0
 12 42  1  0
 13 43  1  0
 13 44  1  0
 16 45  1  0
 17 46  1  0
 20 47  1  0
 24 48  1  0
 26 49  1  0
 26 50  1  0
 26 51  1  0
M  END
>  <score>  (3) 
-9.186

$$$$
=
     RDKit          3D

 51 53  0  0  0  0  0  0  0  0999 V2000
    1.1210   67.1850   69.2540 C   0  0  0  0  0  0  0  0  0  0  0  0
    0.1190   66.1390   69.7440 C   0  0  0  0  0  0  0  0  0  0  0  0
    0.0780   66.0570   71.2750 C   0  0  0  0  0  0  0  0  0  0  0  0
    0.0900   64.6280   71.8230 C   0  0  0  0  0  0  0  0  0  0  0  0
    0.4380   63.3300   70.5940 S   0  0  0  0  0  0  0  0  0  0  0  0
    0.3890   61.4190   72.8420 S   0  0  0  0  0  0  0  0  0  0  0  0
    1.2770   62.1600   71.6170 C   0  0  0  0  0  0  0  0  0  0  0  0
    2.6330   61.9270   71.3320 N   0  0  0  0  0  0  0  0  0  0  0  0
    3.2640   60.6180   71.5620 C   0  0  0  0  0  0  0  0  0  0  0  0
    3.4250   59.8690   70.2390 C   0  0  0  0  0  0  0  0  0  0  0  0
    4.2100   60.7090   69.2300 C   0  0  0  0  0  0  0  0  0  0  0  0
    3.6180   62.1130   69.0880 C   0  0  0  0  0  0  0  0  0  0  0  0
    3.4490   62.7820   70.4540 C   0  0  0  0  0  0  0  0  0  0  0  0
    0.7140   67.7690   68.0160 O   0  0  0  0  0  0  0  0  0  0  0  0
    1.6520   68.0020   67.0510 C   0  0  0  0  0  0  0  0  0  0  0  0
    2.3380   69.1950   66.8310 C   0  0  0  0  0  0  0  0  0  0  0  0
    3.2790   69.2960   65.7920 C   0  0  0  0  0  0  0  0  0  0  0  0
    3.5500   68.2080   64.9570 C   0  0  0  0  0  0  0  0  0  0  0  0
    2.8490   67.0250   65.1950 C   0  0  0  0  0  0  0  0  0  0  0  0
    1.9120   66.9120   66.2230 C   0  0  0  0  0  0  0  0  0  0  0  0
    3.0510   65.8770   64.4040 O   0  0  0  0  0  0  0  0  0  0  0  0
    3.9570   65.8840   63.3590 C   0  0  0  0  0  0  0  0  0  0  0  0
    4.1520   64.9020   62.6510 O   0  0  0  0  0  0  0  0  0  0  0  0
    4.6900   67.1360   63.1200 C   0  0  0  0  0  0  0  0  0  0  0  0
    4.5200   68.2460   63.8550 C   0  0  0  0  0  0  0  0  0  0  0  0
    5.2930   69.4990   63.5720 C   0  0  0  0  0  0  0  0  0  0  0  0
    1.2066   67.9784   70.0111 H   0  0  0  0  0  0  0  0  0  0  0  0
    2.0878   66.6849   69.0951 H   0  0  0  0  0  0  0  0  0  0  0  0
   -0.8824   66.4062   69.3755 H   0  0  0  0  0  0  0  0  0  0  0  0
    0.4354   65.1583   69.3591 H   0  0  0  0  0  0  0  0  0  0  0  0
    0.9555   66.5875   71.6733 H   0  0  0  0  0  0  0  0  0  0  0  0
   -0.8722   66.5113   71.5924 H   0  0  0  0  0  0  0  0  0  0  0  0
    0.8600   64.5703   72.6064 H   0  0  0  0  0  0  0  0  0  0  0  0
   -0.9277   64.4339   72.1925 H   0  0  0  0  0  0  0  0  0  0  0  0
    4.2540   60.7670   72.0178 H   0  0  0  0  0  0  0  0  0  0  0  0
    2.6260   60.0255   72.2342 H   0  0  0  0  0  0  0  0  0  0  0  0
    3.9641   58.9276   70.4211 H   0  0  0  0  0  0  0  0  0  0  0  0
    2.4261   59.6652   69.8260 H   0  0  0  0  0  0  0  0  0  0  0  0
    5.2528   60.7935   69.5697 H   0  0  0  0  0  0  0  0  0  0  0  0
    4.1563   60.2111   68.2506 H   0  0  0  0  0  0  0  0  0  0  0  0
    4.2905   62.7252   68.4692 H   0  0  0  0  0  0  0  0  0  0  0  0
    2.6279   62.0279   68.6164 H   0  0  0  0  0  0  0  0  0  0  0  0
    4.4381   62.9350   70.9103 H   0  0  0  0  0  0  0  0  0  0  0  0
    2.9465   63.7517   70.3232 H   0  0  0  0  0  0  0  0  0  0  0  0
    2.1414   70.0644   67.4756 H   0  0  0  0  0  0  0  0  0  0  0  0
    3.8105   70.2459   65.6333 H   0  0  0  0  0  0  0  0  0  0  0  0
    1.3789   65.9627   66.3796 H   0  0  0  0  0  0  0  0  0  0  0  0
    5.4166   67.1644   62.2946 H   0  0  0  0  0  0  0  0  0  0  0  0
    5.5848   69.9721   64.5212 H   0  0  0  0  0  0  0  0  0  0  0  0
    6.1951   69.2506   62.9936 H   0  0  0  0  0  0  0  0  0  0  0  0
    4.6663   70.1937   62.9936 H   0  0  0  0  0  0  0  0  0  0  0  0
  2  1  1  0
  3  2  1  0
  4  3  1  0
  5  4  1  0
  7  5  1  0
  7  6  2  0
  8  7  1  0
  9  8  1  0
 10  9  1  0
 11 10  1  0
 12 11  1  0
 13 12  1  0
 13  8  1  0
 14  1  1  0
 15 14  1  0
 16 15  2  0
 17 16  1  0
 18 17  2  0
 19 18  1  0
 20 19  2  0
 20 15  1  0
 21 19  1  0
 22 21  1  0
 23 22  2  0
 24 22  1  0
 25 18  1  0
 25 24  2  0
 26 25  1  0
  1 27  1  0
  1 28  1  0
  2 29  1  0
  2 30  1  0
  3 31  1  0
  3 32  1  0
  4 33  1  0
  4 34  1  0
  9 35  1  0
  9 36  1  0
 10 37  1  0
 10 38  1  0
 11 39  1  0
 11 40  1  0
 12 41  1  0
 12 42  1  0
 13 43  1  0
 13 44  1  0
 16 45  1  0
 17 46  1  0
 20 47  1  0
 24 48  1  0
 26 49  1  0
 26 50  1  0
 26 51  1  0
M  END
>  <score>  (4) 
-8.825

$$$$
=
     RDKit          3D

 51 53  0  0  0  0  0  0  0  0999 V2000
    0.9450   66.8760   69.6210 C   0  0  0  0  0  0  0  0  0  0  0  0
    0.2330   65.7680   70.4000 C   0  0  0  0  0  0  0  0  0  0  0  0
    1.0950   64.5050   70.5170 C   0  0  0  0  0  0  0  0  0  0  0  0
    0.5210   63.4440   71.4590 C   0  0  0  0  0  0  0  0  0  0  0  0
    1.6200   62.9430   72.8220 S   0  0  0  0  0  0  0  0  0  0  0  0
    1.2740   60.0130   72.8220 S   0  0  0  0  0  0  0  0  0  0  0  0
    2.1180   61.3500   72.2420 C   0  0  0  0  0  0  0  0  0  0  0  0
    3.1870   61.3130   71.3310 N   0  0  0  0  0  0  0  0  0  0  0  0
    3.0310   60.7810   69.9680 C   0  0  0  0  0  0  0  0  0  0  0  0
    2.9320   61.9250   68.9610 C   0  0  0  0  0  0  0  0  0  0  0  0
    4.1420   62.8560   69.0730 C   0  0  0  0  0  0  0  0  0  0  0  0
    4.3690   63.3080   70.5170 C   0  0  0  0  0  0  0  0  0  0  0  0
    4.4160   62.1120   71.4700 C   0  0  0  0  0  0  0  0  0  0  0  0
    0.1340   67.3840   68.5630 O   0  0  0  0  0  0  0  0  0  0  0  0
    0.7180   67.6990   67.3700 C   0  0  0  0  0  0  0  0  0  0  0  0
    2.0840   67.7140   67.0920 C   0  0  0  0  0  0  0  0  0  0  0  0
    2.5490   68.0640   65.8130 C   0  0  0  0  0  0  0  0  0  0  0  0
    1.6570   68.4050   64.7910 C   0  0  0  0  0  0  0  0  0  0  0  0
    0.2960   68.3860   65.0930 C   0  0  0  0  0  0  0  0  0  0  0  0
   -0.1790   68.0400   66.3590 C   0  0  0  0  0  0  0  0  0  0  0  0
   -0.6770   68.7180   64.1300 O   0  0  0  0  0  0  0  0  0  0  0  0
   -0.3130   69.0760   62.8450 C   0  0  0  0  0  0  0  0  0  0  0  0
   -1.1360   69.3730   61.9870 O   0  0  0  0  0  0  0  0  0  0  0  0
    1.1260   69.0910   62.5400 C   0  0  0  0  0  0  0  0  0  0  0  0
    2.0760   68.7800   63.4340 C   0  0  0  0  0  0  0  0  0  0  0  0
    3.5310   68.8090   63.0730 C   0  0  0  0  0  0  0  0  0  0  0  0
    1.1863   67.6980   70.3110 H   0  0  0  0  0  0  0  0  0  0  0  0
    1.8579   66.4509   69.1785 H   0  0  0  0  0  0  0  0  0  0  0  0
    0.0025   66.1359   71.4107 H   0  0  0  0  0  0  0  0  0  0  0  0
   -0.6850   65.5042   69.8544 H   0  0  0  0  0  0  0  0  0  0  0  0
    1.1951   64.0607   69.5157 H   0  0  0  0  0  0  0  0  0  0  0  0
    2.0609   64.8173   70.9406 H   0  0  0  0  0  0  0  0  0  0  0  0
   -0.4053   63.8434   71.8977 H   0  0  0  0  0  0  0  0  0  0  0  0
    0.3638   62.5440   70.8464 H   0  0  0  0  0  0  0  0  0  0  0  0
    3.9008   60.1545   69.7212 H   0  0  0  0  0  0  0  0  0  0  0  0
    2.1097   60.1819   69.9208 H   0  0  0  0  0  0  0  0  0  0  0  0
    2.8915   61.5075   67.9441 H   0  0  0  0  0  0  0  0  0  0  0  0
    2.0214   62.5040   69.1745 H   0  0  0  0  0  0  0  0  0  0  0  0
    5.0372   62.3229   68.7203 H   0  0  0  0  0  0  0  0  0  0  0  0
    3.9499   63.7476   68.4581 H   0  0  0  0  0  0  0  0  0  0  0  0
    5.3230   63.8523   70.5769 H   0  0  0  0  0  0  0  0  0  0  0  0
    3.5326   63.9577   70.8143 H   0  0  0  0  0  0  0  0  0  0  0  0
    5.2875   61.4862   71.2274 H   0  0  0  0  0  0  0  0  0  0  0  0
    4.4967   62.4760   72.5049 H   0  0  0  0  0  0  0  0  0  0  0  0
    2.8039   67.4496   67.8805 H   0  0  0  0  0  0  0  0  0  0  0  0
    3.6306   68.0699   65.6125 H   0  0  0  0  0  0  0  0  0  0  0  0
   -1.2607   68.0364   66.5588 H   0  0  0  0  0  0  0  0  0  0  0  0
    1.4397   69.3725   61.5239 H   0  0  0  0  0  0  0  0  0  0  0  0
    4.1365   68.8211   63.9913 H   0  0  0  0  0  0  0  0  0  0  0  0
    3.7799   67.9156   62.4814 H   0  0  0  0  0  0  0  0  0  0  0  0
    3.7441   69.7116   62.4814 H   0  0  0  0  0  0  0  0  0  0  0  0
  2  1  1  0
  3  2  1  0
  4  3  1  0
  5  4  1  0
  7  5  1  0
  7  6  2  0
  8  7  1  0
  9  8  1  0
 10  9  1  0
 11 10  1  0
 12 11  1  0
 13 12  1  0
 13  8  1  0
 14  1  1  0
 15 14  1  0
 16 15  2  0
 17 16  1  0
 18 17  2  0
 19 18  1  0
 20 19  2  0
 20 15  1  0
 21 19  1  0
 22 21  1  0
 23 22  2  0
 24 22  1  0
 25 18  1  0
 25 24  2  0
 26 25  1  0
  1 27  1  0
  1 28  1  0
  2 29  1  0
  2 30  1  0
  3 31  1  0
  3 32  1  0
  4 33  1  0
  4 34  1  0
  9 35  1  0
  9 36  1  0
 10 37  1  0
 10 38  1  0
 11 39  1  0
 11 40  1  0
 12 41  1  0
 12 42  1  0
 13 43  1  0
 13 44  1  0
 16 45  1  0
 17 46  1  0
 20 47  1  0
 24 48  1  0
 26 49  1  0
 26 50  1  0
 26 51  1  0
M  END
>  <score>  (5) 
-8.712

$$$$
=
     RDKit          3D

 51 53  0  0  0  0  0  0  0  0999 V2000
    0.5990   66.1400   70.4020 C   0  0  0  0  0  0  0  0  0  0  0  0
    0.8680   66.9400   69.1260 C   0  0  0  0  0  0  0  0  0  0  0  0
   -0.3270   66.9060   68.1660 C   0  0  0  0  0  0  0  0  0  0  0  0
   -0.0250   67.4710   66.7760 C   0  0  0  0  0  0  0  0  0  0  0  0
    1.3070   68.7110   66.7170 S   0  0  0  0  0  0  0  0  0  0  0  0
    2.3130   66.3160   65.3170 S   0  0  0  0  0  0  0  0  0  0  0  0
    2.3360   67.9930   65.4740 C   0  0  0  0  0  0  0  0  0  0  0  0
    3.1040   68.8780   64.6970 N   0  0  0  0  0  0  0  0  0  0  0  0
    4.3310   69.5030   65.2130 C   0  0  0  0  0  0  0  0  0  0  0  0
    5.5630   68.8030   64.6400 C   0  0  0  0  0  0  0  0  0  0  0  0
    5.5260   68.7990   63.1110 C   0  0  0  0  0  0  0  0  0  0  0  0
    4.1940   68.2600   62.5830 C   0  0  0  0  0  0  0  0  0  0  0  0
    3.0100   68.9800   63.2320 C   0  0  0  0  0  0  0  0  0  0  0  0
    0.4220   64.7500   70.1290 O   0  0  0  0  0  0  0  0  0  0  0  0
    1.4200   63.8770   70.4530 C   0  0  0  0  0  0  0  0  0  0  0  0
    2.7840   64.0510   70.2250 C   0  0  0  0  0  0  0  0  0  0  0  0
    3.7050   63.0620   70.6100 C   0  0  0  0  0  0  0  0  0  0  0  0
    3.2780   61.8820   71.2270 C   0  0  0  0  0  0  0  0  0  0  0  0
    1.9080   61.7280   71.4420 C   0  0  0  0  0  0  0  0  0  0  0  0
    0.9840   62.7030   71.0660 C   0  0  0  0  0  0  0  0  0  0  0  0
    1.3840   60.5720   72.0540 O   0  0  0  0  0  0  0  0  0  0  0  0
    2.2150   59.5450   72.4640 C   0  0  0  0  0  0  0  0  0  0  0  0
    1.7880   58.5270   72.9960 O   0  0  0  0  0  0  0  0  0  0  0  0
    3.6560   59.7220   72.2320 C   0  0  0  0  0  0  0  0  0  0  0  0
    4.1860   60.8090   71.6530 C   0  0  0  0  0  0  0  0  0  0  0  0
    5.6650   60.9420   71.4400 C   0  0  0  0  0  0  0  0  0  0  0  0
    1.4520   66.2628   71.0857 H   0  0  0  0  0  0  0  0  0  0  0  0
   -0.3286   66.5203   70.8547 H   0  0  0  0  0  0  0  0  0  0  0  0
    1.0751   67.9853   69.3989 H   0  0  0  0  0  0  0  0  0  0  0  0
    1.7289   66.4852   68.6142 H   0  0  0  0  0  0  0  0  0  0  0  0
   -0.6494   65.8605   68.0519 H   0  0  0  0  0  0  0  0  0  0  0  0
   -1.1073   67.5442   68.6063 H   0  0  0  0  0  0  0  0  0  0  0  0
    0.2604   66.6334   66.1226 H   0  0  0  0  0  0  0  0  0  0  0  0
   -0.9395   67.9890   66.4513 H   0  0  0  0  0  0  0  0  0  0  0  0
    4.3481   70.5638   64.9223 H   0  0  0  0  0  0  0  0  0  0  0  0
    4.3452   69.4130   66.3092 H   0  0  0  0  0  0  0  0  0  0  0  0
    6.4670   69.3314   64.9771 H   0  0  0  0  0  0  0  0  0  0  0  0
    5.5724   67.7617   64.9943 H   0  0  0  0  0  0  0  0  0  0  0  0
    5.6644   69.8279   62.7475 H   0  0  0  0  0  0  0  0  0  0  0  0
    6.3315   68.1436   62.7482 H   0  0  0  0  0  0  0  0  0  0  0  0
    4.1523   68.4103   61.4941 H   0  0  0  0  0  0  0  0  0  0  0  0
    4.1288   67.1899   62.8294 H   0  0  0  0  0  0  0  0  0  0  0  0
    3.0224   70.0401   62.9386 H   0  0  0  0  0  0  0  0  0  0  0  0
    2.0730   68.5121   62.8957 H   0  0  0  0  0  0  0  0  0  0  0  0
    3.1426   64.9706   69.7394 H   0  0  0  0  0  0  0  0  0  0  0  0
    4.7777   63.2183   70.4233 H   0  0  0  0  0  0  0  0  0  0  0  0
   -0.0885   62.5457   71.2531 H   0  0  0  0  0  0  0  0  0  0  0  0
    4.3365   58.9187   72.5509 H   0  0  0  0  0  0  0  0  0  0  0  0
    6.1731   60.9877   72.4145 H   0  0  0  0  0  0  0  0  0  0  0  0
    6.0336   60.0734   70.8746 H   0  0  0  0  0  0  0  0  0  0  0  0
    5.8727   61.8624   70.8746 H   0  0  0  0  0  0  0  0  0  0  0  0
  2  1  1  0
  3  2  1  0
  4  3  1  0
  5  4  1  0
  7  5  1  0
  7  6  2  0
  8  7  1  0
  9  8  1  0
 10  9  1  0
 11 10  1  0
 12 11  1  0
 13 12  1  0
 13  8  1  0
 14  1  1  0
 15 14  1  0
 16 15  2  0
 17 16  1  0
 18 17  2  0
 19 18  1  0
 20 19  2  0
 20 15  1  0
 21 19  1  0
 22 21  1  0
 23 22  2  0
 24 22  1  0
 25 18  1  0
 25 24  2  0
 26 25  1  0
  1 27  1  0
  1 28  1  0
  2 29  1  0
  2 30  1  0
  3 31  1  0
  3 32  1  0
  4 33  1  0
  4 34  1  0
  9 35  1  0
  9 36  1  0
 10 37  1  0
 10 38  1  0
 11 39  1  0
 11 40  1  0
 12 41  1  0
 12 42  1  0
 13 43  1  0
 13 44  1  0
 16 45  1  0
 17 46  1  0
 20 47  1  0
 24 48  1  0
 26 49  1  0
 26 50  1  0
 26 51  1  0
M  END
>  <score>  (6) 
-8.481

$$$$
=
     RDKit          3D

 51 53  0  0  0  0  0  0  0  0999 V2000
    0.7430   66.0830   70.0000 C   0  0  0  0  0  0  0  0  0  0  0  0
    1.1390   67.2640   69.1110 C   0  0  0  0  0  0  0  0  0  0  0  0
    0.1570   67.4630   67.9500 C   0  0  0  0  0  0  0  0  0  0  0  0
    0.4270   68.7150   67.1130 C   0  0  0  0  0  0  0  0  0  0  0  0
    2.1750   69.0020   66.6920 S   0  0  0  0  0  0  0  0  0  0  0  0
    0.6960   68.6750   64.1600 S   0  0  0  0  0  0  0  0  0  0  0  0
    2.1570   68.5410   64.9870 C   0  0  0  0  0  0  0  0  0  0  0  0
    3.3720   68.0960   64.4370 N   0  0  0  0  0  0  0  0  0  0  0  0
    3.4380   67.4420   63.1220 C   0  0  0  0  0  0  0  0  0  0  0  0
    3.9560   68.4220   62.0690 C   0  0  0  0  0  0  0  0  0  0  0  0
    5.3090   69.0030   62.4840 C   0  0  0  0  0  0  0  0  0  0  0  0
    5.2620   69.5730   63.9040 C   0  0  0  0  0  0  0  0  0  0  0  0
    4.6960   68.5510   64.8920 C   0  0  0  0  0  0  0  0  0  0  0  0
    1.8600   65.2450   70.2950 O   0  0  0  0  0  0  0  0  0  0  0  0
    1.6450   64.0370   70.8940 C   0  0  0  0  0  0  0  0  0  0  0  0
    0.6910   63.7520   71.8700 C   0  0  0  0  0  0  0  0  0  0  0  0
    0.5820   62.4570   72.4050 C   0  0  0  0  0  0  0  0  0  0  0  0
    1.4240   61.4270   71.9740 C   0  0  0  0  0  0  0  0  0  0  0  0
    2.3720   61.7360   70.9990 C   0  0  0  0  0  0  0  0  0  0  0  0
    2.4900   63.0170   70.4590 C   0  0  0  0  0  0  0  0  0  0  0  0
    3.2650   60.7650   70.5060 O   0  0  0  0  0  0  0  0  0  0  0  0
    3.2330   59.4650   70.9750 C   0  0  0  0  0  0  0  0  0  0  0  0
    3.9990   58.5990   70.5670 O   0  0  0  0  0  0  0  0  0  0  0  0
    2.2270   59.1520   72.0020 C   0  0  0  0  0  0  0  0  0  0  0  0
    1.3630   60.0530   72.4910 C   0  0  0  0  0  0  0  0  0  0  0  0
    0.3550   59.6840   73.5380 C   0  0  0  0  0  0  0  0  0  0  0  0
    0.3291   66.4699   70.9428 H   0  0  0  0  0  0  0  0  0  0  0  0
   -0.0025   65.4819   69.4587 H   0  0  0  0  0  0  0  0  0  0  0  0
    1.1566   68.1785   69.7221 H   0  0  0  0  0  0  0  0  0  0  0  0
    2.1306   67.0514   68.6850 H   0  0  0  0  0  0  0  0  0  0  0  0
    0.2199   66.5855   67.2897 H   0  0  0  0  0  0  0  0  0  0  0  0
   -0.8409   67.5877   68.3956 H   0  0  0  0  0  0  0  0  0  0  0  0
   -0.1392   68.6256   66.1741 H   0  0  0  0  0  0  0  0  0  0  0  0
    0.1173   69.5696   67.7324 H   0  0  0  0  0  0  0  0  0  0  0  0
    4.1170   66.5785   63.1796 H   0  0  0  0  0  0  0  0  0  0  0  0
    2.4293   67.1090   62.8363 H   0  0  0  0  0  0  0  0  0  0  0  0
    4.0692   67.8944   61.1105 H   0  0  0  0  0  0  0  0  0  0  0  0
    3.2344   69.2464   61.9704 H   0  0  0  0  0  0  0  0  0  0  0  0
    6.0676   68.2075   62.4429 H   0  0  0  0  0  0  0  0  0  0  0  0
    5.5611   69.8200   61.7919 H   0  0  0  0  0  0  0  0  0  0  0  0
    6.2812   69.8462   64.2149 H   0  0  0  0  0  0  0  0  0  0  0  0
    4.6067   70.4565   63.9032 H   0  0  0  0  0  0  0  0  0  0  0  0
    5.3763   67.6889   64.9551 H   0  0  0  0  0  0  0  0  0  0  0  0
    4.5978   69.0198   65.8823 H   0  0  0  0  0  0  0  0  0  0  0  0
    0.0183   64.5471   72.2241 H   0  0  0  0  0  0  0  0  0  0  0  0
   -0.1768   62.2505   73.1741 H   0  0  0  0  0  0  0  0  0  0  0  0
    3.2495   63.2221   69.6902 H   0  0  0  0  0  0  0  0  0  0  0  0
    2.1813   58.1235   72.3894 H   0  0  0  0  0  0  0  0  0  0  0  0
    0.7885   59.8427   74.5364 H   0  0  0  0  0  0  0  0  0  0  0  0
   -0.5402   60.3127   73.4228 H   0  0  0  0  0  0  0  0  0  0  0  0
    0.0773   58.6259   73.4228 H   0  0  0  0  0  0  0  0  0  0  0  0
  2  1  1  0
  3  2  1  0
  4  3  1  0
  5  4  1  0
  7  5  1  0
  7  6  2  0
  8  7  1  0
  9  8  1  0
 10  9  1  0
 11 10  1  0
 12 11  1  0
 13 12  1  0
 13  8  1  0
 14  1  1  0
 15 14  1  0
 16 15  2  0
 17 16  1  0
 18 17  2  0
 19 18  1  0
 20 19  2  0
 20 15  1  0
 21 19  1  0
 22 21  1  0
 23 22  2  0
 24 22  1  0
 25 18  1  0
 25 24  2  0
 26 25  1  0
  1 27  1  0
  1 28  1  0
  2 29  1  0
  2 30  1  0
  3 31  1  0
  3 32  1  0
  4 33  1  0
  4 34  1  0
  9 35  1  0
  9 36  1  0
 10 37  1  0
 10 38  1  0
 11 39  1  0
 11 40  1  0
 12 41  1  0
 12 42  1  0
 13 43  1  0
 13 44  1  0
 16 45  1  0
 17 46  1  0
 20 47  1  0
 24 48  1  0
 26 49  1  0
 26 50  1  0
 26 51  1  0
M  END
>  <score>  (7) 
-8.477

$$$$
=
     RDKit          3D

 51 53  0  0  0  0  0  0  0  0999 V2000
    1.1660   67.4100   68.9870 C   0  0  0  0  0  0  0  0  0  0  0  0
    1.3240   66.3900   70.1160 C   0  0  0  0  0  0  0  0  0  0  0  0
    0.4730   65.1360   69.8790 C   0  0  0  0  0  0  0  0  0  0  0  0
    0.1450   64.3560   71.1540 C   0  0  0  0  0  0  0  0  0  0  0  0
    1.5890   63.7940   72.1110 S   0  0  0  0  0  0  0  0  0  0  0  0
    0.2130   61.2140   72.5020 S   0  0  0  0  0  0  0  0  0  0  0  0
    1.4970   62.0560   71.8100 C   0  0  0  0  0  0  0  0  0  0  0  0
    2.5050   61.4970   71.0070 N   0  0  0  0  0  0  0  0  0  0  0  0
    3.3230   62.3170   70.1000 C   0  0  0  0  0  0  0  0  0  0  0  0
    4.7040   62.5600   70.7070 C   0  0  0  0  0  0  0  0  0  0  0  0
    5.3900   61.2360   71.0500 C   0  0  0  0  0  0  0  0  0  0  0  0
    4.4820   60.3370   71.8930 C   0  0  0  0  0  0  0  0  0  0  0  0
    3.1060   60.1740   71.2430 C   0  0  0  0  0  0  0  0  0  0  0  0
    0.2570   66.9550   67.9850 O   0  0  0  0  0  0  0  0  0  0  0  0
    0.3200   67.4990   66.7350 C   0  0  0  0  0  0  0  0  0  0  0  0
   -0.6400   68.3110   66.1320 C   0  0  0  0  0  0  0  0  0  0  0  0
   -0.4450   68.8010   64.8300 C   0  0  0  0  0  0  0  0  0  0  0  0
    0.7110   68.4880   64.1080 C   0  0  0  0  0  0  0  0  0  0  0  0
    1.6560   67.6720   64.7300 C   0  0  0  0  0  0  0  0  0  0  0  0
    1.4750   67.1790   66.0220 C   0  0  0  0  0  0  0  0  0  0  0  0
    2.8490   67.3000   64.0800 O   0  0  0  0  0  0  0  0  0  0  0  0
    3.1260   67.7330   62.7960 C   0  0  0  0  0  0  0  0  0  0  0  0
    4.1540   67.4240   62.2050 O   0  0  0  0  0  0  0  0  0  0  0  0
    2.1220   68.5940   62.1530 C   0  0  0  0  0  0  0  0  0  0  0  0
    0.9760   68.9660   62.7440 C   0  0  0  0  0  0  0  0  0  0  0  0
   -0.0160   69.8470   62.0460 C   0  0  0  0  0  0  0  0  0  0  0  0
    0.7878   68.3527   69.4092 H   0  0  0  0  0  0  0  0  0  0  0  0
    2.1497   67.5541   68.5163 H   0  0  0  0  0  0  0  0  0  0  0  0
    2.3815   66.0945   70.1825 H   0  0  0  0  0  0  0  0  0  0  0  0
    0.9836   66.8608   71.0501 H   0  0  0  0  0  0  0  0  0  0  0  0
   -0.4727   65.4436   69.4088 H   0  0  0  0  0  0  0  0  0  0  0  0
    1.0657   64.4655   69.2394 H   0  0  0  0  0  0  0  0  0  0  0  0
   -0.4622   65.0042   71.8029 H   0  0  0  0  0  0  0  0  0  0  0  0
   -0.3794   63.4454   70.8288 H   0  0  0  0  0  0  0  0  0  0  0  0
    3.4357   61.7933   69.1393 H   0  0  0  0  0  0  0  0  0  0  0  0
    2.8245   63.2852   69.9446 H   0  0  0  0  0  0  0  0  0  0  0  0
    5.3238   63.1100   69.9835 H   0  0  0  0  0  0  0  0  0  0  0  0
    4.5839   63.1436   71.6317 H   0  0  0  0  0  0  0  0  0  0  0  0
    5.6445   60.7127   70.1165 H   0  0  0  0  0  0  0  0  0  0  0  0
    6.2958   61.4571   71.6337 H   0  0  0  0  0  0  0  0  0  0  0  0
    4.9508   59.3470   71.9935 H   0  0  0  0  0  0  0  0  0  0  0  0
    4.3478   60.8048   72.8795 H   0  0  0  0  0  0  0  0  0  0  0  0
    3.2155   59.6465   70.2839 H   0  0  0  0  0  0  0  0  0  0  0  0
    2.4546   59.5940   71.9133 H   0  0  0  0  0  0  0  0  0  0  0  0
   -1.5577   68.5700   66.6805 H   0  0  0  0  0  0  0  0  0  0  0  0
   -1.2134   69.4407   64.3714 H   0  0  0  0  0  0  0  0  0  0  0  0
    2.2433   66.5377   66.4786 H   0  0  0  0  0  0  0  0  0  0  0  0
    2.3212   68.9525   61.1323 H   0  0  0  0  0  0  0  0  0  0  0  0
   -0.6197   70.3831   62.7931 H   0  0  0  0  0  0  0  0  0  0  0  0
    0.5183   70.5737   61.4164 H   0  0  0  0  0  0  0  0  0  0  0  0
   -0.6745   69.2306   61.4164 H   0  0  0  0  0  0  0  0  0  0  0  0
  2  1  1  0
  3  2  1  0
  4  3  1  0
  5  4  1  0
  7  5  1  0
  7  6  2  0
  8  7  1  0
  9  8  1  0
 10  9  1  0
 11 10  1  0
 12 11  1  0
 13 12  1  0
 13  8  1  0
 14  1  1  0
 15 14  1  0
 16 15  2  0
 17 16  1  0
 18 17  2  0
 19 18  1  0
 20 19  2  0
 20 15  1  0
 21 19  1  0
 22 21  1  0
 23 22  2  0
 24 22  1  0
 25 18  1  0
 25 24  2  0
 26 25  1  0
  1 27  1  0
  1 28  1  0
  2 29  1  0
  2 30  1  0
  3 31  1  0
  3 32  1  0
  4 33  1  0
  4 34  1  0
  9 35  1  0
  9 36  1  0
 10 37  1  0
 10 38  1  0
 11 39  1  0
 11 40  1  0
 12 41  1  0
 12 42  1  0
 13 43  1  0
 13 44  1  0
 16 45  1  0
 17 46  1  0
 20 47  1  0
 24 48  1  0
 26 49  1  0
 26 50  1  0
 26 51  1  0
M  END
>  <score>  (8) 
-8.411

$$$$
=
     RDKit          3D

 51 53  0  0  0  0  0  0  0  0999 V2000
    0.6800   66.0490   69.8650 C   0  0  0  0  0  0  0  0  0  0  0  0
    0.8460   67.2360   68.9150 C   0  0  0  0  0  0  0  0  0  0  0  0
   -0.2760   67.2970   67.8710 C   0  0  0  0  0  0  0  0  0  0  0  0
    0.1900   67.7320   66.4800 C   0  0  0  0  0  0  0  0  0  0  0  0
    1.9760   67.5530   66.1710 S   0  0  0  0  0  0  0  0  0  0  0  0
    0.6590   68.6930   63.7900 S   0  0  0  0  0  0  0  0  0  0  0  0
    2.0340   67.9870   64.4600 C   0  0  0  0  0  0  0  0  0  0  0  0
    3.2310   67.7130   63.7760 N   0  0  0  0  0  0  0  0  0  0  0  0
    3.3270   67.7940   62.3110 C   0  0  0  0  0  0  0  0  0  0  0  0
    4.0300   69.0860   61.8970 C   0  0  0  0  0  0  0  0  0  0  0  0
    5.4030   69.1970   62.5640 C   0  0  0  0  0  0  0  0  0  0  0  0
    5.3090   68.9900   64.0780 C   0  0  0  0  0  0  0  0  0  0  0  0
    4.5580   67.7000   64.4130 C   0  0  0  0  0  0  0  0  0  0  0  0
    1.6570   65.0370   69.6220 O   0  0  0  0  0  0  0  0  0  0  0  0
    1.6040   63.8770   70.3400 C   0  0  0  0  0  0  0  0  0  0  0  0
    2.6220   62.9340   70.4720 C   0  0  0  0  0  0  0  0  0  0  0  0
    2.4280   61.7760   71.2440 C   0  0  0  0  0  0  0  0  0  0  0  0
    1.2140   61.5410   71.8970 C   0  0  0  0  0  0  0  0  0  0  0  0
    0.2090   62.4960   71.7490 C   0  0  0  0  0  0  0  0  0  0  0  0
    0.3890   63.6500   70.9850 C   0  0  0  0  0  0  0  0  0  0  0  0
   -1.0490   62.3450   72.3650 O   0  0  0  0  0  0  0  0  0  0  0  0
   -1.3310   61.2360   73.1430 C   0  0  0  0  0  0  0  0  0  0  0  0
   -2.4160   61.0750   73.6890 O   0  0  0  0  0  0  0  0  0  0  0  0
   -0.2610   60.2380   73.2920 C   0  0  0  0  0  0  0  0  0  0  0  0
    0.9460   60.3530   72.7180 C   0  0  0  0  0  0  0  0  0  0  0  0
    2.0040   59.3070   72.9020 C   0  0  0  0  0  0  0  0  0  0  0  0
    0.7848   66.4042   70.9008 H   0  0  0  0  0  0  0  0  0  0  0  0
   -0.3153   65.6119   69.6966 H   0  0  0  0  0  0  0  0  0  0  0  0
    0.8352   68.1657   69.5028 H   0  0  0  0  0  0  0  0  0  0  0  0
    1.8003   67.1138   68.3817 H   0  0  0  0  0  0  0  0  0  0  0  0
   -0.7256   66.2965   67.7878 H   0  0  0  0  0  0  0  0  0  0  0  0
   -0.9923   68.0563   68.2181 H   0  0  0  0  0  0  0  0  0  0  0  0
   -0.3468   67.1254   65.7358 H   0  0  0  0  0  0  0  0  0  0  0  0
   -0.0266   68.8080   66.4075 H   0  0  0  0  0  0  0  0  0  0  0  0
    3.9000   66.9329   61.9366 H   0  0  0  0  0  0  0  0  0  0  0  0
    2.3130   67.7855   61.8846 H   0  0  0  0  0  0  0  0  0  0  0  0
    4.1585   69.0923   60.8045 H   0  0  0  0  0  0  0  0  0  0  0  0
    3.4138   69.9397   62.2156 H   0  0  0  0  0  0  0  0  0  0  0  0
    6.0697   68.4321   62.1393 H   0  0  0  0  0  0  0  0  0  0  0  0
    5.7971   70.2069   62.3773 H   0  0  0  0  0  0  0  0  0  0  0  0
    6.3247   68.9331   64.4964 H   0  0  0  0  0  0  0  0  0  0  0  0
    4.7582   69.8373   64.5125 H   0  0  0  0  0  0  0  0  0  0  0  0
    5.1317   66.8374   64.0431 H   0  0  0  0  0  0  0  0  0  0  0  0
    4.4355   67.6250   65.5036 H   0  0  0  0  0  0  0  0  0  0  0  0
    3.5856   63.0978   69.9674 H   0  0  0  0  0  0  0  0  0  0  0  0
    3.2433   61.0434   71.3360 H   0  0  0  0  0  0  0  0  0  0  0  0
   -0.4280   64.3806   70.8917 H   0  0  0  0  0  0  0  0  0  0  0  0
   -0.4614   59.3488   73.9077 H   0  0  0  0  0  0  0  0  0  0  0  0
    2.1723   59.1407   73.9763 H   0  0  0  0  0  0  0  0  0  0  0  0
    1.6766   58.3677   72.4324 H   0  0  0  0  0  0  0  0  0  0  0  0
    2.9395   59.6451   72.4324 H   0  0  0  0  0  0  0  0  0  0  0  0
  2  1  1  0
  3  2  1  0
  4  3  1  0
  5  4  1  0
  7  5  1  0
  7  6  2  0
  8  7  1  0
  9  8  1  0
 10  9  1  0
 11 10  1  0
 12 11  1  0
 13 12  1  0
 13  8  1  0
 14  1  1  0
 15 14  1  0
 16 15  2  0
 17 16  1  0
 18 17  2  0
 19 18  1  0
 20 19  2  0
 20 15  1  0
 21 19  1  0
 22 21  1  0
 23 22  2  0
 24 22  1  0
 25 18  1  0
 25 24  2  0
 26 25  1  0
  1 27  1  0
  1 28  1  0
  2 29  1  0
  2 30  1  0
  3 31  1  0
  3 32  1  0
  4 33  1  0
  4 34  1  0
  9 35  1  0
  9 36  1  0
 10 37  1  0
 10 38  1  0
 11 39  1  0
 11 40  1  0
 12 41  1  0
 12 42  1  0
 13 43  1  0
 13 44  1  0
 16 45  1  0
 17 46  1  0
 20 47  1  0
 24 48  1  0
 26 49  1  0
 26 50  1  0
 26 51  1  0
M  END
>  <score>  (9) 
-8.29

$$$$
