=
     RDKit          3D

 53 57  0  0  0  0  0  0  0  0999 V2000
   -2.5140   59.7180   75.4830 C   0  0  1  0  0  0  0  0  0  0  0  0
   -2.4000   58.3510   75.9490 O   0  0  0  0  0  0  0  0  0  0  0  0
   -1.7120   57.4730   75.1550 C   0  0  0  0  0  0  0  0  0  0  0  0
   -1.9320   56.1180   75.4050 C   0  0  0  0  0  0  0  0  0  0  0  0
   -1.2630   55.1630   74.6490 C   0  0  0  0  0  0  0  0  0  0  0  0
   -0.3700   55.5410   73.6540 C   0  0  0  0  0  0  0  0  0  0  0  0
   -0.1390   56.8990   73.4160 C   0  0  0  0  0  0  0  0  0  0  0  0
   -0.8060   57.8800   74.1670 C   0  0  0  0  0  0  0  0  0  0  0  0
   -0.5670   59.3120   73.9800 C   0  0  0  0  0  0  0  0  0  0  0  0
   -1.3760   60.1660   74.6130 C   0  0  0  0  0  0  0  0  0  0  0  0
   -1.1030   61.6130   74.4880 C   0  0  0  0  0  0  0  0  0  0  0  0
   -1.7220   62.4160   75.1730 O   0  0  0  0  0  0  0  0  0  0  0  0
   -0.0420   62.0090   73.5270 C   0  0  0  0  0  0  0  0  0  0  0  0
    0.7130   60.9970   72.9190 C   0  0  0  0  0  0  0  0  0  0  0  0
    0.4880   59.6620   73.1710 O   0  0  0  0  0  0  0  0  0  0  0  0
    1.7480   61.3130   72.0160 C   0  0  0  0  0  0  0  0  0  0  0  0
    2.5560   60.2830   71.3710 C   0  0  0  0  0  0  0  0  0  0  0  0
    3.5190   60.6660   70.5280 C   0  0  0  0  0  0  0  0  0  0  0  0
    3.8160   62.1100   70.2040 C   0  0  0  0  0  0  0  0  0  0  0  0
    2.9820   63.0810   70.8660 O   0  0  0  0  0  0  0  0  0  0  0  0
    2.0090   62.6530   71.7250 C   0  0  0  0  0  0  0  0  0  0  0  0
    1.2560   63.6660   72.3210 C   0  0  0  0  0  0  0  0  0  0  0  0
    0.2350   63.3460   73.2170 C   0  0  0  0  0  0  0  0  0  0  0  0
    5.2590   62.4340   70.6050 C   0  0  0  0  0  0  0  0  0  0  0  0
    3.6340   62.3400   68.6980 C   0  0  0  0  0  0  0  0  0  0  0  0
   -4.9680   61.6000   76.1740 C   0  0  0  0  0  0  0  0  0  0  0  0
   -4.8990   60.6100   75.0430 C   0  0  0  0  0  0  0  0  0  0  0  0
   -3.8440   59.8200   74.7610 C   0  0  0  0  0  0  0  0  0  0  0  0
   -6.1420   60.5600   74.1940 C   0  0  0  0  0  0  0  0  0  0  0  0
   -1.5130   53.8500   74.9180 O   0  0  0  0  0  0  0  0  0  0  0  0
   -0.4880   64.3640   73.7690 O   0  0  0  0  0  0  0  0  0  0  0  0
   -2.4670   60.3978   76.3465 H   0  0  0  0  0  0  0  0  0  0  0  0
   -2.6308   55.8076   76.1958 H   0  0  0  0  0  0  0  0  0  0  0  0
    0.1513   54.7774   73.0580 H   0  0  0  0  0  0  0  0  0  0  0  0
    0.5719   57.2018   72.6331 H   0  0  0  0  0  0  0  0  0  0  0  0
    2.3764   59.2169   71.5741 H   0  0  0  0  0  0  0  0  0  0  0  0
    4.1277   59.8878   70.0444 H   0  0  0  0  0  0  0  0  0  0  0  0
    1.4679   64.7190   72.0839 H   0  0  0  0  0  0  0  0  0  0  0  0
    5.3395   62.4521   71.7019 H   0  0  0  0  0  0  0  0  0  0  0  0
    5.9335   61.6649   70.2005 H   0  0  0  0  0  0  0  0  0  0  0  0
    5.5399   63.4176   70.2005 H   0  0  0  0  0  0  0  0  0  0  0  0
    2.9588   63.1932   68.5364 H   0  0  0  0  0  0  0  0  0  0  0  0
    4.6107   62.5532   68.2390 H   0  0  0  0  0  0  0  0  0  0  0  0
    3.2020   61.4385   68.2390 H   0  0  0  0  0  0  0  0  0  0  0  0
   -4.9306   61.0636   77.1336 H   0  0  0  0  0  0  0  0  0  0  0  0
   -4.1159   62.2925   76.1076 H   0  0  0  0  0  0  0  0  0  0  0  0
   -5.9079   62.1676   76.1076 H   0  0  0  0  0  0  0  0  0  0  0  0
   -3.9637   59.1599   73.8893 H   0  0  0  0  0  0  0  0  0  0  0  0
   -7.0288   60.5243   74.8439 H   0  0  0  0  0  0  0  0  0  0  0  0
   -6.1886   61.4570   73.5590 H   0  0  0  0  0  0  0  0  0  0  0  0
   -6.1164   59.6622   73.5590 H   0  0  0  0  0  0  0  0  0  0  0  0
   -1.0544   53.1424   74.3993 H   0  0  0  0  0  0  0  0  0  0  0  0
   -1.2176   64.1635   74.4074 H   0  0  0  0  0  0  0  0  0  0  0  0
  2  1  1  0
  3  2  1  0
  4  3  2  0
  5  4  1  0
  6  5  2  0
  7  6  1  0
  8  7  2  0
  8  3  1  0
  9  8  1  0
 10  9  2  0
 10  1  1  0
 11 10  1  0
 12 11  2  0
 13 11  1  0
 14 13  2  0
 15  9  1  0
 15 14  1  0
 16 14  1  0
 17 16  1  0
 18 17  2  0
 19 18  1  0
 20 19  1  0
 21 20  1  0
 21 16  2  0
 22 21  1  0
 23 22  2  0
 23 13  1  0
 24 19  1  0
 25 19  1  0
 27 26  1  0
 28  1  1  0
 28 27  2  3
 29 27  1  0
 30  5  1  0
 31 23  1  0
  1 32  1  1
  4 33  1  0
  6 34  1  0
  7 35  1  0
 17 36  1  0
 18 37  1  0
 22 38  1  0
 24 39  1  0
 24 40  1  0
 24 41  1  0
 25 42  1  0
 25 43  1  0
 25 44  1  0
 26 45  1  0
 26 46  1  0
 26 47  1  0
 28 48  1  0
 29 49  1  0
 29 50  1  0
 29 51  1  0
 30 52  1  0
 31 53  1  0
M  END
>  <score>  (1) 
-9.633

$$$$
=
     RDKit          3D

 53 57  0  0  0  0  0  0  0  0999 V2000
   -0.7790   57.3090   74.7240 C   0  0  1  0  0  0  0  0  0  0  0  0
   -2.0600   57.8510   75.1300 O   0  0  0  0  0  0  0  0  0  0  0  0
   -2.1630   59.2130   75.2310 C   0  0  0  0  0  0  0  0  0  0  0  0
   -3.2400   59.6930   75.9750 C   0  0  0  0  0  0  0  0  0  0  0  0
   -3.4210   61.0640   76.1160 C   0  0  0  0  0  0  0  0  0  0  0  0
   -2.5450   61.9620   75.5170 C   0  0  0  0  0  0  0  0  0  0  0  0
   -1.4750   61.4780   74.7600 C   0  0  0  0  0  0  0  0  0  0  0  0
   -1.2740   60.0970   74.6070 C   0  0  0  0  0  0  0  0  0  0  0  0
   -0.1900   59.5450   73.7910 C   0  0  0  0  0  0  0  0  0  0  0  0
    0.0250   58.2290   73.8520 C   0  0  0  0  0  0  0  0  0  0  0  0
    1.0700   57.6490   72.9810 C   0  0  0  0  0  0  0  0  0  0  0  0
    1.1920   56.4350   72.8930 O   0  0  0  0  0  0  0  0  0  0  0  0
    1.9140   58.6090   72.2260 C   0  0  0  0  0  0  0  0  0  0  0  0
    1.5790   59.9690   72.2770 C   0  0  0  0  0  0  0  0  0  0  0  0
    0.5130   60.4350   73.0140 O   0  0  0  0  0  0  0  0  0  0  0  0
    2.3290   60.9240   71.5620 C   0  0  0  0  0  0  0  0  0  0  0  0
    2.0020   62.3460   71.5880 C   0  0  0  0  0  0  0  0  0  0  0  0
    2.7630   63.1870   70.8830 C   0  0  0  0  0  0  0  0  0  0  0  0
    3.9470   62.7450   70.0570 C   0  0  0  0  0  0  0  0  0  0  0  0
    4.2240   61.3310   70.0740 O   0  0  0  0  0  0  0  0  0  0  0  0
    3.4230   60.4990   70.8050 C   0  0  0  0  0  0  0  0  0  0  0  0
    3.7670   59.1480   70.7550 C   0  0  0  0  0  0  0  0  0  0  0  0
    3.0170   58.2080   71.4630 C   0  0  0  0  0  0  0  0  0  0  0  0
    3.7130   63.1230   68.5900 C   0  0  0  0  0  0  0  0  0  0  0  0
    5.2130   63.4390   70.5740 C   0  0  0  0  0  0  0  0  0  0  0  0
    0.1890   54.4480   75.6810 C   0  0  0  0  0  0  0  0  0  0  0  0
    0.3790   55.7440   76.4230 C   0  0  0  0  0  0  0  0  0  0  0  0
   -0.0360   56.9540   75.9970 C   0  0  0  0  0  0  0  0  0  0  0  0
    1.1090   55.6010   77.7320 C   0  0  0  0  0  0  0  0  0  0  0  0
   -4.4810   61.4930   76.8580 O   0  0  0  0  0  0  0  0  0  0  0  0
    3.3940   56.8960   71.4000 O   0  0  0  0  0  0  0  0  0  0  0  0
   -0.9453   56.4249   74.0911 H   0  0  0  0  0  0  0  0  0  0  0  0
   -3.9425   58.9908   76.4477 H   0  0  0  0  0  0  0  0  0  0  0  0
   -2.6931   63.0452   75.6381 H   0  0  0  0  0  0  0  0  0  0  0  0
   -0.7835   62.1857   74.2793 H   0  0  0  0  0  0  0  0  0  0  0  0
    1.1485   62.7165   72.1747 H   0  0  0  0  0  0  0  0  0  0  0  0
    2.5141   64.2582   70.9053 H   0  0  0  0  0  0  0  0  0  0  0  0
    4.6309   58.8231   70.1565 H   0  0  0  0  0  0  0  0  0  0  0  0
    3.1346   64.0573   68.5399 H   0  0  0  0  0  0  0  0  0  0  0  0
    4.6819   63.2642   68.0887 H   0  0  0  0  0  0  0  0  0  0  0  0
    3.1546   62.3187   68.0887 H   0  0  0  0  0  0  0  0  0  0  0  0
    5.2091   63.4369   71.6740 H   0  0  0  0  0  0  0  0  0  0  0  0
    6.1007   62.9014   70.2094 H   0  0  0  0  0  0  0  0  0  0  0  0
    5.2373   64.4765   70.2094 H   0  0  0  0  0  0  0  0  0  0  0  0
    0.0686   53.6266   76.4026 H   0  0  0  0  0  0  0  0  0  0  0  0
   -0.7088   54.5155   75.0491 H   0  0  0  0  0  0  0  0  0  0  0  0
    1.0684   54.2549   75.0491 H   0  0  0  0  0  0  0  0  0  0  0  0
    0.1959   57.7980   76.6633 H   0  0  0  0  0  0  0  0  0  0  0  0
    0.4019   55.7395   78.5632 H   0  0  0  0  0  0  0  0  0  0  0  0
    1.5566   54.5981   77.7946 H   0  0  0  0  0  0  0  0  0  0  0  0
    1.9019   56.3609   77.7946 H   0  0  0  0  0  0  0  0  0  0  0  0
   -4.6402   62.4625   76.9794 H   0  0  0  0  0  0  0  0  0  0  0  0
    2.8792   56.2088   71.8928 H   0  0  0  0  0  0  0  0  0  0  0  0
  2  1  1  0
  3  2  1  0
  4  3  2  0
  5  4  1  0
  6  5  2  0
  7  6  1  0
  8  7  2  0
  8  3  1  0
  9  8  1  0
 10  9  2  0
 10  1  1  0
 11 10  1  0
 12 11  2  0
 13 11  1  0
 14 13  2  0
 15  9  1  0
 15 14  1  0
 16 14  1  0
 17 16  1  0
 18 17  2  0
 19 18  1  0
 20 19  1  0
 21 20  1  0
 21 16  2  0
 22 21  1  0
 23 22  2  0
 23 13  1  0
 24 19  1  0
 25 19  1  0
 27 26  1  0
 28  1  1  0
 28 27  2  3
 29 27  1  0
 30  5  1  0
 31 23  1  0
  1 32  1  6
  4 33  1  0
  6 34  1  0
  7 35  1  0
 17 36  1  0
 18 37  1  0
 22 38  1  0
 24 39  1  0
 24 40  1  0
 24 41  1  0
 25 42  1  0
 25 43  1  0
 25 44  1  0
 26 45  1  0
 26 46  1  0
 26 47  1  0
 28 48  1  0
 29 49  1  0
 29 50  1  0
 29 51  1  0
 30 52  1  0
 31 53  1  0
M  END
>  <score>  (2) 
-9.014

$$$$
=
     RDKit          3D

 53 57  0  0  0  0  0  0  0  0999 V2000
   -0.0390   61.6450   72.9460 C   0  0  1  0  0  0  0  0  0  0  0  0
    0.8700   62.0440   71.8900 O   0  0  0  0  0  0  0  0  0  0  0  0
    2.0150   61.3090   71.7360 C   0  0  0  0  0  0  0  0  0  0  0  0
    3.0370   61.9120   71.0040 C   0  0  0  0  0  0  0  0  0  0  0  0
    4.2280   61.2280   70.7940 C   0  0  0  0  0  0  0  0  0  0  0  0
    4.4080   59.9440   71.2970 C   0  0  0  0  0  0  0  0  0  0  0  0
    3.3760   59.3360   72.0170 C   0  0  0  0  0  0  0  0  0  0  0  0
    2.1670   60.0110   72.2420 C   0  0  0  0  0  0  0  0  0  0  0  0
    1.0450   59.4000   72.9560 C   0  0  0  0  0  0  0  0  0  0  0  0
    0.0090   60.1810   73.2740 C   0  0  0  0  0  0  0  0  0  0  0  0
   -1.1590   59.5620   73.9330 C   0  0  0  0  0  0  0  0  0  0  0  0
   -2.1850   60.2070   74.0990 O   0  0  0  0  0  0  0  0  0  0  0  0
   -1.0170   58.1400   74.3410 C   0  0  0  0  0  0  0  0  0  0  0  0
    0.1410   57.4530   73.9540 C   0  0  0  0  0  0  0  0  0  0  0  0
    1.1460   58.0560   73.2320 O   0  0  0  0  0  0  0  0  0  0  0  0
    0.3210   56.0970   74.2920 C   0  0  0  0  0  0  0  0  0  0  0  0
    1.5120   55.3500   73.8990 C   0  0  0  0  0  0  0  0  0  0  0  0
    1.6070   54.0680   74.2590 C   0  0  0  0  0  0  0  0  0  0  0  0
    0.5460   53.3460   75.0540 C   0  0  0  0  0  0  0  0  0  0  0  0
   -0.6040   54.1350   75.4170 O   0  0  0  0  0  0  0  0  0  0  0  0
   -0.6680   55.4440   75.0290 C   0  0  0  0  0  0  0  0  0  0  0  0
   -1.8210   56.1240   75.4240 C   0  0  0  0  0  0  0  0  0  0  0  0
   -1.9940   57.4660   75.0830 C   0  0  0  0  0  0  0  0  0  0  0  0
    0.0170   52.1620   74.2360 C   0  0  0  0  0  0  0  0  0  0  0  0
    1.1530   52.8370   76.3660 C   0  0  0  0  0  0  0  0  0  0  0  0
   -0.0020   64.8070   73.1410 C   0  0  0  0  0  0  0  0  0  0  0  0
    0.3210   63.8450   74.2520 C   0  0  0  0  0  0  0  0  0  0  0  0
    0.2950   62.5000   74.1510 C   0  0  0  0  0  0  0  0  0  0  0  0
    0.6830   64.5090   75.5550 C   0  0  0  0  0  0  0  0  0  0  0  0
    5.2060   61.8550   70.0810 O   0  0  0  0  0  0  0  0  0  0  0  0
   -3.1290   58.1010   75.4990 O   0  0  0  0  0  0  0  0  0  0  0  0
   -1.0742   61.8046   72.6101 H   0  0  0  0  0  0  0  0  0  0  0  0
    2.9011   62.9240   70.5949 H   0  0  0  0  0  0  0  0  0  0  0  0
    5.3555   59.4110   71.1294 H   0  0  0  0  0  0  0  0  0  0  0  0
    3.5131   58.3182   72.4111 H   0  0  0  0  0  0  0  0  0  0  0  0
    2.3129   55.8324   73.3195 H   0  0  0  0  0  0  0  0  0  0  0  0
    2.5057   53.5083   73.9606 H   0  0  0  0  0  0  0  0  0  0  0  0
   -2.5948   55.6011   76.0052 H   0  0  0  0  0  0  0  0  0  0  0  0
   -0.3352   51.3737   74.9175 H   0  0  0  0  0  0  0  0  0  0  0  0
   -0.8167   52.4978   73.6018 H   0  0  0  0  0  0  0  0  0  0  0  0
    0.8234   51.7651   73.6018 H   0  0  0  0  0  0  0  0  0  0  0  0
    0.6179   53.2857   77.2159 H   0  0  0  0  0  0  0  0  0  0  0  0
    1.0613   51.7418   76.4119 H   0  0  0  0  0  0  0  0  0  0  0  0
    2.2155   53.1182   76.4119 H   0  0  0  0  0  0  0  0  0  0  0  0
   -0.3244   65.7673   73.5697 H   0  0  0  0  0  0  0  0  0  0  0  0
    0.8926   64.9643   72.5206 H   0  0  0  0  0  0  0  0  0  0  0  0
   -0.8103   64.3926   72.5206 H   0  0  0  0  0  0  0  0  0  0  0  0
    0.5511   61.9494   75.0682 H   0  0  0  0  0  0  0  0  0  0  0  0
    0.3418   63.8831   76.3927 H   0  0  0  0  0  0  0  0  0  0  0  0
    1.7743   64.6345   75.6118 H   0  0  0  0  0  0  0  0  0  0  0  0
    0.1972   65.4943   75.6118 H   0  0  0  0  0  0  0  0  0  0  0  0
    6.0672   61.3965   69.9127 H   0  0  0  0  0  0  0  0  0  0  0  0
   -3.2757   59.0530   75.2703 H   0  0  0  0  0  0  0  0  0  0  0  0
  2  1  1  0
  3  2  1  0
  4  3  2  0
  5  4  1  0
  6  5  2  0
  7  6  1  0
  8  7  2  0
  8  3  1  0
  9  8  1  0
 10  9  2  0
 10  1  1  0
 11 10  1  0
 12 11  2  0
 13 11  1  0
 14 13  2  0
 15  9  1  0
 15 14  1  0
 16 14  1  0
 17 16  1  0
 18 17  2  0
 19 18  1  0
 20 19  1  0
 21 20  1  0
 21 16  2  0
 22 21  1  0
 23 22  2  0
 23 13  1  0
 24 19  1  0
 25 19  1  0
 27 26  1  0
 28  1  1  0
 28 27  2  3
 29 27  1  0
 30  5  1  0
 31 23  1  0
  1 32  1  6
  4 33  1  0
  6 34  1  0
  7 35  1  0
 17 36  1  0
 18 37  1  0
 22 38  1  0
 24 39  1  0
 24 40  1  0
 24 41  1  0
 25 42  1  0
 25 43  1  0
 25 44  1  0
 26 45  1  0
 26 46  1  0
 26 47  1  0
 28 48  1  0
 29 49  1  0
 29 50  1  0
 29 51  1  0
 30 52  1  0
 31 53  1  0
M  END
>  <score>  (3) 
-8.871

$$$$
=
     RDKit          3D

 53 57  0  0  0  0  0  0  0  0999 V2000
    2.0830   62.1950   71.1110 C   0  0  1  0  0  0  0  0  0  0  0  0
    2.2720   60.9410   70.4100 O   0  0  0  0  0  0  0  0  0  0  0  0
    2.4350   59.8140   71.1700 C   0  0  0  0  0  0  0  0  0  0  0  0
    2.9890   58.7100   70.5220 C   0  0  0  0  0  0  0  0  0  0  0  0
    3.1780   57.5250   71.2210 C   0  0  0  0  0  0  0  0  0  0  0  0
    2.8110   57.4230   72.5590 C   0  0  0  0  0  0  0  0  0  0  0  0
    2.2420   58.5250   73.2020 C   0  0  0  0  0  0  0  0  0  0  0  0
    2.0450   59.7320   72.5140 C   0  0  0  0  0  0  0  0  0  0  0  0
    1.4170   60.9000   73.1350 C   0  0  0  0  0  0  0  0  0  0  0  0
    1.4370   62.0510   72.4580 C   0  0  0  0  0  0  0  0  0  0  0  0
    0.7460   63.2190   73.0430 C   0  0  0  0  0  0  0  0  0  0  0  0
    0.6080   64.2440   72.3880 O   0  0  0  0  0  0  0  0  0  0  0  0
    0.2240   63.0610   74.4250 C   0  0  0  0  0  0  0  0  0  0  0  0
    0.2940   61.7930   75.0180 C   0  0  0  0  0  0  0  0  0  0  0  0
    0.8430   60.7090   74.3700 O   0  0  0  0  0  0  0  0  0  0  0  0
   -0.2060   61.5760   76.3170 C   0  0  0  0  0  0  0  0  0  0  0  0
   -0.1550   60.2670   76.9610 C   0  0  0  0  0  0  0  0  0  0  0  0
   -0.6510   60.1450   78.1950 C   0  0  0  0  0  0  0  0  0  0  0  0
   -1.2630   61.2910   78.9630 C   0  0  0  0  0  0  0  0  0  0  0  0
   -1.2810   62.5600   78.2790 O   0  0  0  0  0  0  0  0  0  0  0  0
   -0.7670   62.6470   77.0150 C   0  0  0  0  0  0  0  0  0  0  0  0
   -0.8340   63.9140   76.4340 C   0  0  0  0  0  0  0  0  0  0  0  0
   -0.3390   64.1200   75.1450 C   0  0  0  0  0  0  0  0  0  0  0  0
   -2.7210   60.9580   79.2960 C   0  0  0  0  0  0  0  0  0  0  0  0
   -0.4750   61.5110   80.2600 C   0  0  0  0  0  0  0  0  0  0  0  0
    3.9970   63.0870   68.7490 C   0  0  0  0  0  0  0  0  0  0  0  0
    4.2790   63.2250   70.2200 C   0  0  0  0  0  0  0  0  0  0  0  0
    3.4490   62.8440   71.2130 C   0  0  0  0  0  0  0  0  0  0  0  0
    5.6090   63.8590   70.5340 C   0  0  0  0  0  0  0  0  0  0  0  0
    3.7300   56.4730   70.5540 O   0  0  0  0  0  0  0  0  0  0  0  0
   -0.4100   65.3770   74.6160 O   0  0  0  0  0  0  0  0  0  0  0  0
    1.3769   62.8213   70.5460 H   0  0  0  0  0  0  0  0  0  0  0  0
    3.2749   58.7777   69.4620 H   0  0  0  0  0  0  0  0  0  0  0  0
    2.9676   56.4819   73.1065 H   0  0  0  0  0  0  0  0  0  0  0  0
    1.9454   58.4457   74.2583 H   0  0  0  0  0  0  0  0  0  0  0  0
    0.2818   59.4011   76.4419 H   0  0  0  0  0  0  0  0  0  0  0  0
   -0.6114   59.1571   78.6771 H   0  0  0  0  0  0  0  0  0  0  0  0
   -1.2774   64.7516   76.9924 H   0  0  0  0  0  0  0  0  0  0  0  0
   -2.8502   60.9285   80.3880 H   0  0  0  0  0  0  0  0  0  0  0  0
   -3.3798   61.7288   78.8695 H   0  0  0  0  0  0  0  0  0  0  0  0
   -2.9798   59.9776   78.8695 H   0  0  0  0  0  0  0  0  0  0  0  0
   -1.1314   61.3277   81.1234 H   0  0  0  0  0  0  0  0  0  0  0  0
    0.3774   60.8165   80.2935 H   0  0  0  0  0  0  0  0  0  0  0  0
   -0.1057   62.5466   80.2935 H   0  0  0  0  0  0  0  0  0  0  0  0
    3.0172   62.6075   68.6069 H   0  0  0  0  0  0  0  0  0  0  0  0
    3.9890   64.0830   68.2822 H   0  0  0  0  0  0  0  0  0  0  0  0
    4.7785   62.4695   68.2822 H   0  0  0  0  0  0  0  0  0  0  0  0
    3.8126   63.0293   72.2345 H   0  0  0  0  0  0  0  0  0  0  0  0
    5.7376   63.9203   71.6247 H   0  0  0  0  0  0  0  0  0  0  0  0
    6.4168   63.2491   70.1033 H   0  0  0  0  0  0  0  0  0  0  0  0
    5.6438   64.8706   70.1033 H   0  0  0  0  0  0  0  0  0  0  0  0
    3.8788   55.6133   71.0219 H   0  0  0  0  0  0  0  0  0  0  0  0
   -0.0662   65.5504   73.7039 H   0  0  0  0  0  0  0  0  0  0  0  0
  2  1  1  0
  3  2  1  0
  4  3  2  0
  5  4  1  0
  6  5  2  0
  7  6  1  0
  8  7  2  0
  8  3  1  0
  9  8  1  0
 10  9  2  0
 10  1  1  0
 11 10  1  0
 12 11  2  0
 13 11  1  0
 14 13  2  0
 15  9  1  0
 15 14  1  0
 16 14  1  0
 17 16  1  0
 18 17  2  0
 19 18  1  0
 20 19  1  0
 21 20  1  0
 21 16  2  0
 22 21  1  0
 23 22  2  0
 23 13  1  0
 24 19  1  0
 25 19  1  0
 27 26  1  0
 28  1  1  0
 28 27  2  3
 29 27  1  0
 30  5  1  0
 31 23  1  0
  1 32  1  6
  4 33  1  0
  6 34  1  0
  7 35  1  0
 17 36  1  0
 18 37  1  0
 22 38  1  0
 24 39  1  0
 24 40  1  0
 24 41  1  0
 25 42  1  0
 25 43  1  0
 25 44  1  0
 26 45  1  0
 26 46  1  0
 26 47  1  0
 28 48  1  0
 29 49  1  0
 29 50  1  0
 29 51  1  0
 30 52  1  0
 31 53  1  0
M  END
>  <score>  (4) 
-8.103

$$$$
=
     RDKit          3D

 53 57  0  0  0  0  0  0  0  0999 V2000
    1.5030   63.0250   73.3160 C   0  0  1  0  0  0  0  0  0  0  0  0
    1.1070   63.8250   74.4580 O   0  0  0  0  0  0  0  0  0  0  0  0
    0.2000   63.2760   75.3250 C   0  0  0  0  0  0  0  0  0  0  0  0
   -0.4520   64.1680   76.1760 C   0  0  0  0  0  0  0  0  0  0  0  0
   -1.3800   63.6890   77.0930 C   0  0  0  0  0  0  0  0  0  0  0  0
   -1.6590   62.3290   77.1780 C   0  0  0  0  0  0  0  0  0  0  0  0
   -0.9920   61.4360   76.3340 C   0  0  0  0  0  0  0  0  0  0  0  0
   -0.0530   61.9000   75.4000 C   0  0  0  0  0  0  0  0  0  0  0  0
    0.6970   60.9990   74.5240 C   0  0  0  0  0  0  0  0  0  0  0  0
    1.4320   61.5450   73.5520 C   0  0  0  0  0  0  0  0  0  0  0  0
    2.2490   60.6510   72.7040 C   0  0  0  0  0  0  0  0  0  0  0  0
    3.0500   61.1210   71.9080 O   0  0  0  0  0  0  0  0  0  0  0  0
    2.0560   59.1910   72.8990 C   0  0  0  0  0  0  0  0  0  0  0  0
    1.2330   58.7650   73.9510 C   0  0  0  0  0  0  0  0  0  0  0  0
    0.5930   59.6530   74.7860 O   0  0  0  0  0  0  0  0  0  0  0  0
    1.0310   57.3930   74.1990 C   0  0  0  0  0  0  0  0  0  0  0  0
    0.1870   56.9170   75.2900 C   0  0  0  0  0  0  0  0  0  0  0  0
    0.0470   55.6000   75.4580 C   0  0  0  0  0  0  0  0  0  0  0  0
    0.7170   54.5730   74.5770 C   0  0  0  0  0  0  0  0  0  0  0  0
    1.5340   55.1020   73.5150 O   0  0  0  0  0  0  0  0  0  0  0  0
    1.6560   56.4560   73.3740 C   0  0  0  0  0  0  0  0  0  0  0  0
    2.4710   56.8720   72.3200 C   0  0  0  0  0  0  0  0  0  0  0  0
    2.6690   58.2330   72.0830 C   0  0  0  0  0  0  0  0  0  0  0  0
    1.6360   53.6930   75.4320 C   0  0  0  0  0  0  0  0  0  0  0  0
   -0.3540   53.7030   73.9080 C   0  0  0  0  0  0  0  0  0  0  0  0
    2.3770   64.3640   70.5810 C   0  0  0  0  0  0  0  0  0  0  0  0
    0.9710   64.0260   70.9940 C   0  0  0  0  0  0  0  0  0  0  0  0
    0.6170   63.4510   72.1620 C   0  0  0  0  0  0  0  0  0  0  0  0
   -0.0730   64.3760   69.9660 C   0  0  0  0  0  0  0  0  0  0  0  0
   -2.0030   64.5940   77.9000 O   0  0  0  0  0  0  0  0  0  0  0  0
    3.4620   58.6010   71.0340 O   0  0  0  0  0  0  0  0  0  0  0  0
    2.5664   63.2054   73.0999 H   0  0  0  0  0  0  0  0  0  0  0  0
   -0.2330   65.2446   76.1217 H   0  0  0  0  0  0  0  0  0  0  0  0
   -2.3985   61.9590   77.9034 H   0  0  0  0  0  0  0  0  0  0  0  0
   -1.2053   60.3591   76.4027 H   0  0  0  0  0  0  0  0  0  0  0  0
   -0.3221   57.6269   75.9585 H   0  0  0  0  0  0  0  0  0  0  0  0
   -0.5898   55.2444   76.2814 H   0  0  0  0  0  0  0  0  0  0  0  0
    2.9581   56.1258   71.6750 H   0  0  0  0  0  0  0  0  0  0  0  0
    1.4380   53.8826   76.4973 H   0  0  0  0  0  0  0  0  0  0  0  0
    1.4435   52.6338   75.2061 H   0  0  0  0  0  0  0  0  0  0  0  0
    2.6859   53.9312   75.2061 H   0  0  0  0  0  0  0  0  0  0  0  0
   -0.9613   53.2097   74.6812 H   0  0  0  0  0  0  0  0  0  0  0  0
   -1.0008   54.3347   73.2814 H   0  0  0  0  0  0  0  0  0  0  0  0
    0.1318   52.9405   73.2814 H   0  0  0  0  0  0  0  0  0  0  0  0
    2.9967   64.5130   71.4775 H   0  0  0  0  0  0  0  0  0  0  0  0
    2.7913   63.5399   69.9817 H   0  0  0  0  0  0  0  0  0  0  0  0
    2.3714   65.2864   69.9817 H   0  0  0  0  0  0  0  0  0  0  0  0
   -0.4592   63.2665   72.2948 H   0  0  0  0  0  0  0  0  0  0  0  0
   -0.9981   64.6862   70.4738 H   0  0  0  0  0  0  0  0  0  0  0  0
    0.2939   65.2003   69.3367 H   0  0  0  0  0  0  0  0  0  0  0  0
   -0.2771   63.4971   69.3367 H   0  0  0  0  0  0  0  0  0  0  0  0
   -2.6697   64.2879   78.5647 H   0  0  0  0  0  0  0  0  0  0  0  0
    3.6185   59.5600   70.8444 H   0  0  0  0  0  0  0  0  0  0  0  0
  2  1  1  0
  3  2  1  0
  4  3  2  0
  5  4  1  0
  6  5  2  0
  7  6  1  0
  8  7  2  0
  8  3  1  0
  9  8  1  0
 10  9  2  0
 10  1  1  0
 11 10  1  0
 12 11  2  0
 13 11  1  0
 14 13  2  0
 15  9  1  0
 15 14  1  0
 16 14  1  0
 17 16  1  0
 18 17  2  0
 19 18  1  0
 20 19  1  0
 21 20  1  0
 21 16  2  0
 22 21  1  0
 23 22  2  0
 23 13  1  0
 24 19  1  0
 25 19  1  0
 27 26  1  0
 28  1  1  0
 28 27  2  3
 29 27  1  0
 30  5  1  0
 31 23  1  0
  1 32  1  6
  4 33  1  0
  6 34  1  0
  7 35  1  0
 17 36  1  0
 18 37  1  0
 22 38  1  0
 24 39  1  0
 24 40  1  0
 24 41  1  0
 25 42  1  0
 25 43  1  0
 25 44  1  0
 26 45  1  0
 26 46  1  0
 26 47  1  0
 28 48  1  0
 29 49  1  0
 29 50  1  0
 29 51  1  0
 30 52  1  0
 31 53  1  0
M  END
>  <score>  (5) 
-7.958

$$$$
=
     RDKit          3D

 53 57  0  0  0  0  0  0  0  0999 V2000
    2.8240   60.7860   72.5530 C   0  0  1  0  0  0  0  0  0  0  0  0
    3.0970   62.1680   72.2110 O   0  0  0  0  0  0  0  0  0  0  0  0
    2.0330   62.9460   71.8410 C   0  0  0  0  0  0  0  0  0  0  0  0
    2.3400   64.1230   71.1590 C   0  0  0  0  0  0  0  0  0  0  0  0
    1.3170   64.9720   70.7580 C   0  0  0  0  0  0  0  0  0  0  0  0
   -0.0110   64.6670   71.0370 C   0  0  0  0  0  0  0  0  0  0  0  0
   -0.3150   63.4940   71.7340 C   0  0  0  0  0  0  0  0  0  0  0  0
    0.7040   62.6220   72.1460 C   0  0  0  0  0  0  0  0  0  0  0  0
    0.4350   61.4040   72.9120 C   0  0  0  0  0  0  0  0  0  0  0  0
    1.4470   60.5520   73.1010 C   0  0  0  0  0  0  0  0  0  0  0  0
    1.2070   59.3530   73.9310 C   0  0  0  0  0  0  0  0  0  0  0  0
    2.1410   58.6330   74.2560 O   0  0  0  0  0  0  0  0  0  0  0  0
   -0.1960   59.1060   74.3530 C   0  0  0  0  0  0  0  0  0  0  0  0
   -1.1580   60.0830   74.0620 C   0  0  0  0  0  0  0  0  0  0  0  0
   -0.8450   61.2420   73.3880 O   0  0  0  0  0  0  0  0  0  0  0  0
   -2.4990   59.9140   74.4570 C   0  0  0  0  0  0  0  0  0  0  0  0
   -3.5230   60.9160   74.1750 C   0  0  0  0  0  0  0  0  0  0  0  0
   -4.7730   60.6800   74.5840 C   0  0  0  0  0  0  0  0  0  0  0  0
   -5.1850   59.4300   75.3240 C   0  0  0  0  0  0  0  0  0  0  0  0
   -4.1330   58.4760   75.5680 O   0  0  0  0  0  0  0  0  0  0  0  0
   -2.8650   58.7520   75.1380 C   0  0  0  0  0  0  0  0  0  0  0  0
   -1.9150   57.7710   75.4250 C   0  0  0  0  0  0  0  0  0  0  0  0
   -0.5870   57.9470   75.0330 C   0  0  0  0  0  0  0  0  0  0  0  0
   -5.7480   59.8150   76.6960 C   0  0  0  0  0  0  0  0  0  0  0  0
   -6.2580   58.6920   74.5140 C   0  0  0  0  0  0  0  0  0  0  0  0
    4.9350   61.3420   70.2560 C   0  0  0  0  0  0  0  0  0  0  0  0
    3.9610   60.1970   70.3080 C   0  0  0  0  0  0  0  0  0  0  0  0
    3.0720   59.9730   71.2970 C   0  0  0  0  0  0  0  0  0  0  0  0
    4.0510   59.2590   69.1330 C   0  0  0  0  0  0  0  0  0  0  0  0
    1.6580   66.1080   70.0860 O   0  0  0  0  0  0  0  0  0  0  0  0
    0.3110   56.9590   75.3200 O   0  0  0  0  0  0  0  0  0  0  0  0
    3.4887   60.4790   73.3739 H   0  0  0  0  0  0  0  0  0  0  0  0
    3.3874   64.3776   70.9398 H   0  0  0  0  0  0  0  0  0  0  0  0
   -0.8154   65.3432   70.7119 H   0  0  0  0  0  0  0  0  0  0  0  0
   -1.3637   63.2522   71.9617 H   0  0  0  0  0  0  0  0  0  0  0  0
   -3.2714   61.8429   73.6387 H   0  0  0  0  0  0  0  0  0  0  0  0
   -5.5426   61.4364   74.3703 H   0  0  0  0  0  0  0  0  0  0  0  0
   -2.2131   56.8578   75.9609 H   0  0  0  0  0  0  0  0  0  0  0  0
   -5.1162   59.3829   77.4860 H   0  0  0  0  0  0  0  0  0  0  0  0
   -5.7590   60.9106   76.7935 H   0  0  0  0  0  0  0  0  0  0  0  0
   -6.7730   59.4279   76.7935 H   0  0  0  0  0  0  0  0  0  0  0  0
   -6.9658   58.2052   75.2010 H   0  0  0  0  0  0  0  0  0  0  0  0
   -6.7979   59.4108   73.8800 H   0  0  0  0  0  0  0  0  0  0  0  0
   -5.7799   57.9307   73.8800 H   0  0  0  0  0  0  0  0  0  0  0  0
    5.1957   61.6484   71.2798 H   0  0  0  0  0  0  0  0  0  0  0  0
    5.8449   61.0255   69.7251 H   0  0  0  0  0  0  0  0  0  0  0  0
    4.4767   62.1894   69.7251 H   0  0  0  0  0  0  0  0  0  0  0  0
    2.4414   59.0798   71.1764 H   0  0  0  0  0  0  0  0  0  0  0  0
    4.1502   58.2253   69.4958 H   0  0  0  0  0  0  0  0  0  0  0  0
    3.1402   59.3475   68.5225 H   0  0  0  0  0  0  0  0  0  0  0  0
    4.9283   59.5191   68.5225 H   0  0  0  0  0  0  0  0  0  0  0  0
    0.9538   66.7356   69.7855 H   0  0  0  0  0  0  0  0  0  0  0  0
    1.2591   57.0589   75.0530 H   0  0  0  0  0  0  0  0  0  0  0  0
  2  1  1  0
  3  2  1  0
  4  3  2  0
  5  4  1  0
  6  5  2  0
  7  6  1  0
  8  7  2  0
  8  3  1  0
  9  8  1  0
 10  9  2  0
 10  1  1  0
 11 10  1  0
 12 11  2  0
 13 11  1  0
 14 13  2  0
 15  9  1  0
 15 14  1  0
 16 14  1  0
 17 16  1  0
 18 17  2  0
 19 18  1  0
 20 19  1  0
 21 20  1  0
 21 16  2  0
 22 21  1  0
 23 22  2  0
 23 13  1  0
 24 19  1  0
 25 19  1  0
 27 26  1  0
 28  1  1  0
 28 27  2  3
 29 27  1  0
 30  5  1  0
 31 23  1  0
  1 32  1  1
  4 33  1  0
  6 34  1  0
  7 35  1  0
 17 36  1  0
 18 37  1  0
 22 38  1  0
 24 39  1  0
 24 40  1  0
 24 41  1  0
 25 42  1  0
 25 43  1  0
 25 44  1  0
 26 45  1  0
 26 46  1  0
 26 47  1  0
 28 48  1  0
 29 49  1  0
 29 50  1  0
 29 51  1  0
 30 52  1  0
 31 53  1  0
M  END
>  <score>  (6) 
-7.735

$$$$
=
     RDKit          3D

 53 57  0  0  0  0  0  0  0  0999 V2000
    2.7990   60.9710   72.8480 C   0  0  1  0  0  0  0  0  0  0  0  0
    2.6740   62.2480   73.5220 O   0  0  0  0  0  0  0  0  0  0  0  0
    1.5100   62.4870   74.2030 C   0  0  0  0  0  0  0  0  0  0  0  0
    1.2420   63.8210   74.5090 C   0  0  0  0  0  0  0  0  0  0  0  0
    0.0860   64.1470   75.2070 C   0  0  0  0  0  0  0  0  0  0  0  0
   -0.8020   63.1570   75.6120 C   0  0  0  0  0  0  0  0  0  0  0  0
   -0.5240   61.8200   75.3180 C   0  0  0  0  0  0  0  0  0  0  0  0
    0.6370   61.4700   74.6110 C   0  0  0  0  0  0  0  0  0  0  0  0
    0.9900   60.0810   74.3140 C   0  0  0  0  0  0  0  0  0  0  0  0
    2.0150   59.8620   73.4870 C   0  0  0  0  0  0  0  0  0  0  0  0
    2.4250   58.4650   73.2340 C   0  0  0  0  0  0  0  0  0  0  0  0
    3.4510   58.2290   72.6090 O   0  0  0  0  0  0  0  0  0  0  0  0
    1.5500   57.4030   73.7940 C   0  0  0  0  0  0  0  0  0  0  0  0
    0.4930   57.7880   74.6300 C   0  0  0  0  0  0  0  0  0  0  0  0
    0.2360   59.1070   74.9270 O   0  0  0  0  0  0  0  0  0  0  0  0
   -0.3560   56.8240   75.2090 C   0  0  0  0  0  0  0  0  0  0  0  0
   -1.4610   57.1910   76.0890 C   0  0  0  0  0  0  0  0  0  0  0  0
   -2.2200   56.2160   76.5970 C   0  0  0  0  0  0  0  0  0  0  0  0
   -1.9960   54.7510   76.3100 C   0  0  0  0  0  0  0  0  0  0  0  0
   -0.8940   54.4510   75.4310 O   0  0  0  0  0  0  0  0  0  0  0  0
   -0.1370   55.4730   74.9320 C   0  0  0  0  0  0  0  0  0  0  0  0
    0.9090   55.0830   74.0940 C   0  0  0  0  0  0  0  0  0  0  0  0
    1.7480   56.0430   73.5270 C   0  0  0  0  0  0  0  0  0  0  0  0
   -1.7150   54.0140   77.6240 C   0  0  0  0  0  0  0  0  0  0  0  0
   -3.2490   54.1670   75.6480 C   0  0  0  0  0  0  0  0  0  0  0  0
    4.4460   62.3660   70.5280 C   0  0  0  0  0  0  0  0  0  0  0  0
    3.0600   61.7930   70.4120 C   0  0  0  0  0  0  0  0  0  0  0  0
    2.3750   61.1980   71.4100 C   0  0  0  0  0  0  0  0  0  0  0  0
    2.4560   61.9210   69.0380 C   0  0  0  0  0  0  0  0  0  0  0  0
   -0.1440   65.4630   75.4800 O   0  0  0  0  0  0  0  0  0  0  0  0
    2.7520   55.6230   72.7020 O   0  0  0  0  0  0  0  0  0  0  0  0
    3.8420   60.6282   72.9156 H   0  0  0  0  0  0  0  0  0  0  0  0
    1.9422   64.6108   74.1993 H   0  0  0  0  0  0  0  0  0  0  0  0
   -1.7173   63.4247   76.1602 H   0  0  0  0  0  0  0  0  0  0  0  0
   -1.2214   61.0341   75.6436 H   0  0  0  0  0  0  0  0  0  0  0  0
   -1.6640   58.2453   76.3283 H   0  0  0  0  0  0  0  0  0  0  0  0
   -3.0524   56.4956   77.2596 H   0  0  0  0  0  0  0  0  0  0  0  0
    1.0723   54.0164   73.8801 H   0  0  0  0  0  0  0  0  0  0  0  0
   -1.9646   54.6685   78.4721 H   0  0  0  0  0  0  0  0  0  0  0  0
   -2.3286   53.1023   77.6715 H   0  0  0  0  0  0  0  0  0  0  0  0
   -0.6502   53.7422   77.6715 H   0  0  0  0  0  0  0  0  0  0  0  0
   -3.9547   53.8381   76.4250 H   0  0  0  0  0  0  0  0  0  0  0  0
   -3.7252   54.9360   75.0219 H   0  0  0  0  0  0  0  0  0  0  0  0
   -2.9663   53.3078   75.0219 H   0  0  0  0  0  0  0  0  0  0  0  0
    4.7099   62.4751   71.5903 H   0  0  0  0  0  0  0  0  0  0  0  0
    5.1639   61.6909   70.0393 H   0  0  0  0  0  0  0  0  0  0  0  0
    4.4777   63.3510   70.0393 H   0  0  0  0  0  0  0  0  0  0  0  0
    1.3738   60.8275   71.1450 H   0  0  0  0  0  0  0  0  0  0  0  0
    1.3836   62.1483   69.1286 H   0  0  0  0  0  0  0  0  0  0  0  0
    2.9579   62.7327   68.4910 H   0  0  0  0  0  0  0  0  0  0  0  0
    2.5855   60.9755   68.4910 H   0  0  0  0  0  0  0  0  0  0  0  0
   -0.9581   65.7308   75.9756 H   0  0  0  0  0  0  0  0  0  0  0  0
    3.3610   56.2842   72.2871 H   0  0  0  0  0  0  0  0  0  0  0  0
  2  1  1  0
  3  2  1  0
  4  3  2  0
  5  4  1  0
  6  5  2  0
  7  6  1  0
  8  7  2  0
  8  3  1  0
  9  8  1  0
 10  9  2  0
 10  1  1  0
 11 10  1  0
 12 11  2  0
 13 11  1  0
 14 13  2  0
 15  9  1  0
 15 14  1  0
 16 14  1  0
 17 16  1  0
 18 17  2  0
 19 18  1  0
 20 19  1  0
 21 20  1  0
 21 16  2  0
 22 21  1  0
 23 22  2  0
 23 13  1  0
 24 19  1  0
 25 19  1  0
 27 26  1  0
 28  1  1  0
 28 27  2  3
 29 27  1  0
 30  5  1  0
 31 23  1  0
  1 32  1  6
  4 33  1  0
  6 34  1  0
  7 35  1  0
 17 36  1  0
 18 37  1  0
 22 38  1  0
 24 39  1  0
 24 40  1  0
 24 41  1  0
 25 42  1  0
 25 43  1  0
 25 44  1  0
 26 45  1  0
 26 46  1  0
 26 47  1  0
 28 48  1  0
 29 49  1  0
 29 50  1  0
 29 51  1  0
 30 52  1  0
 31 53  1  0
M  END
>  <score>  (7) 
-7.729

$$$$
=
     RDKit          3D

 53 57  0  0  0  0  0  0  0  0999 V2000
   -0.8180   61.5540   74.3010 C   0  0  1  0  0  0  0  0  0  0  0  0
   -2.0390   62.1050   74.8520 O   0  0  0  0  0  0  0  0  0  0  0  0
   -3.1360   61.2860   74.8920 C   0  0  0  0  0  0  0  0  0  0  0  0
   -4.3680   61.9180   75.0540 C   0  0  0  0  0  0  0  0  0  0  0  0
   -5.5290   61.1570   75.1140 C   0  0  0  0  0  0  0  0  0  0  0  0
   -5.4750   59.7700   75.0240 C   0  0  0  0  0  0  0  0  0  0  0  0
   -4.2370   59.1380   74.8780 C   0  0  0  0  0  0  0  0  0  0  0  0
   -3.0530   59.8890   74.8130 C   0  0  0  0  0  0  0  0  0  0  0  0
   -1.7320   59.2690   74.6990 C   0  0  0  0  0  0  0  0  0  0  0  0
   -0.6880   60.0680   74.4650 C   0  0  0  0  0  0  0  0  0  0  0  0
    0.6600   59.4630   74.4170 C   0  0  0  0  0  0  0  0  0  0  0  0
    1.6520   60.1760   74.3610 O   0  0  0  0  0  0  0  0  0  0  0  0
    0.7250   57.9800   74.4690 C   0  0  0  0  0  0  0  0  0  0  0  0
   -0.4620   57.2710   74.6980 C   0  0  0  0  0  0  0  0  0  0  0  0
   -1.6750   57.9040   74.8570 O   0  0  0  0  0  0  0  0  0  0  0  0
   -0.4580   55.8650   74.7800 C   0  0  0  0  0  0  0  0  0  0  0  0
   -1.6760   55.0980   75.0250 C   0  0  0  0  0  0  0  0  0  0  0  0
   -1.5870   53.7670   75.0890 C   0  0  0  0  0  0  0  0  0  0  0  0
   -0.2920   53.0100   74.9210 C   0  0  0  0  0  0  0  0  0  0  0  0
    0.8750   53.8200   74.6770 O   0  0  0  0  0  0  0  0  0  0  0  0
    0.7480   55.1790   74.6210 C   0  0  0  0  0  0  0  0  0  0  0  0
    1.9330   55.8770   74.3840 C   0  0  0  0  0  0  0  0  0  0  0  0
    1.9220   57.2710   74.3080 C   0  0  0  0  0  0  0  0  0  0  0  0
   -0.0030   52.2080   76.1950 C   0  0  0  0  0  0  0  0  0  0  0  0
   -0.4140   52.0560   73.7270 C   0  0  0  0  0  0  0  0  0  0  0  0
    1.2900   63.4230   72.8520 C   0  0  0  0  0  0  0  0  0  0  0  0
    0.1040   62.7580   72.2090 C   0  0  0  0  0  0  0  0  0  0  0  0
   -0.7810   61.9610   72.8410 C   0  0  0  0  0  0  0  0  0  0  0  0
   -0.0360   63.0410   70.7360 C   0  0  0  0  0  0  0  0  0  0  0  0
   -6.7140   61.8130   75.2640 O   0  0  0  0  0  0  0  0  0  0  0  0
    3.0990   57.9170   74.0620 O   0  0  0  0  0  0  0  0  0  0  0  0
    0.0421   61.9552   74.8572 H   0  0  0  0  0  0  0  0  0  0  0  0
   -4.4207   63.0138   75.1339 H   0  0  0  0  0  0  0  0  0  0  0  0
   -6.3993   59.1753   75.0674 H   0  0  0  0  0  0  0  0  0  0  0  0
   -4.1901   58.0409   74.8134 H   0  0  0  0  0  0  0  0  0  0  0  0
   -2.6440   55.6044   75.1538 H   0  0  0  0  0  0  0  0  0  0  0  0
   -2.5062   53.1919   75.2740 H   0  0  0  0  0  0  0  0  0  0  0  0
    2.8775   55.3278   74.2568 H   0  0  0  0  0  0  0  0  0  0  0  0
   -0.2261   52.8271   77.0765 H   0  0  0  0  0  0  0  0  0  0  0  0
   -0.6327   51.3062   76.2114 H   0  0  0  0  0  0  0  0  0  0  0  0
    1.0572   51.9152   76.2114 H   0  0  0  0  0  0  0  0  0  0  0  0
   -0.5456   51.0267   74.0920 H   0  0  0  0  0  0  0  0  0  0  0  0
   -1.2828   52.3423   73.1162 H   0  0  0  0  0  0  0  0  0  0  0  0
    0.4989   52.1145   73.1162 H   0  0  0  0  0  0  0  0  0  0  0  0
    1.1924   63.3683   73.9463 H   0  0  0  0  0  0  0  0  0  0  0  0
    2.2117   62.9101   72.5400 H   0  0  0  0  0  0  0  0  0  0  0  0
    1.3332   64.4769   72.5400 H   0  0  0  0  0  0  0  0  0  0  0  0
   -1.5849   61.5505   72.2123 H   0  0  0  0  0  0  0  0  0  0  0  0
   -0.5197   64.0188   70.5948 H   0  0  0  0  0  0  0  0  0  0  0  0
    0.9598   63.0537   70.2688 H   0  0  0  0  0  0  0  0  0  0  0  0
   -0.6503   62.2572   70.2688 H   0  0  0  0  0  0  0  0  0  0  0  0
   -7.5604   61.3017   75.3104 H   0  0  0  0  0  0  0  0  0  0  0  0
    3.1185   58.9051   74.0033 H   0  0  0  0  0  0  0  0  0  0  0  0
  2  1  1  0
  3  2  1  0
  4  3  2  0
  5  4  1  0
  6  5  2  0
  7  6  1  0
  8  7  2  0
  8  3  1  0
  9  8  1  0
 10  9  2  0
 10  1  1  0
 11 10  1  0
 12 11  2  0
 13 11  1  0
 14 13  2  0
 15  9  1  0
 15 14  1  0
 16 14  1  0
 17 16  1  0
 18 17  2  0
 19 18  1  0
 20 19  1  0
 21 20  1  0
 21 16  2  0
 22 21  1  0
 23 22  2  0
 23 13  1  0
 24 19  1  0
 25 19  1  0
 27 26  1  0
 28  1  1  0
 28 27  2  3
 29 27  1  0
 30  5  1  0
 31 23  1  0
  1 32  1  1
  4 33  1  0
  6 34  1  0
  7 35  1  0
 17 36  1  0
 18 37  1  0
 22 38  1  0
 24 39  1  0
 24 40  1  0
 24 41  1  0
 25 42  1  0
 25 43  1  0
 25 44  1  0
 26 45  1  0
 26 46  1  0
 26 47  1  0
 28 48  1  0
 29 49  1  0
 29 50  1  0
 29 51  1  0
 30 52  1  0
 31 53  1  0
M  END
>  <score>  (8) 
-7.71

$$$$
=
     RDKit          3D

 53 57  0  0  0  0  0  0  0  0999 V2000
    3.2510   62.0310   72.2240 C   0  0  1  0  0  0  0  0  0  0  0  0
    3.3570   63.2330   71.4220 O   0  0  0  0  0  0  0  0  0  0  0  0
    2.2330   64.0050   71.2950 C   0  0  0  0  0  0  0  0  0  0  0  0
    2.2310   64.9170   70.2400 C   0  0  0  0  0  0  0  0  0  0  0  0
    1.1310   65.7450   70.0490 C   0  0  0  0  0  0  0  0  0  0  0  0
    0.0360   65.6790   70.9030 C   0  0  0  0  0  0  0  0  0  0  0  0
    0.0460   64.7750   71.9680 C   0  0  0  0  0  0  0  0  0  0  0  0
    1.1470   63.9290   72.1770 C   0  0  0  0  0  0  0  0  0  0  0  0
    1.2190   62.9940   73.3010 C   0  0  0  0  0  0  0  0  0  0  0  0
    2.2210   62.1110   73.3130 C   0  0  0  0  0  0  0  0  0  0  0  0
    2.3450   61.2080   74.4760 C   0  0  0  0  0  0  0  0  0  0  0  0
    3.3320   60.4950   74.5980 O   0  0  0  0  0  0  0  0  0  0  0  0
    1.2400   61.2440   75.4680 C   0  0  0  0  0  0  0  0  0  0  0  0
    0.2410   62.2150   75.3120 C   0  0  0  0  0  0  0  0  0  0  0  0
    0.2470   63.1130   74.2670 O   0  0  0  0  0  0  0  0  0  0  0  0
   -0.8190   62.3130   76.2340 C   0  0  0  0  0  0  0  0  0  0  0  0
   -1.8710   63.3170   76.1040 C   0  0  0  0  0  0  0  0  0  0  0  0
   -2.8420   63.3440   77.0200 C   0  0  0  0  0  0  0  0  0  0  0  0
   -2.9110   62.3890   78.1870 C   0  0  0  0  0  0  0  0  0  0  0  0
   -1.8490   61.4170   78.2600 O   0  0  0  0  0  0  0  0  0  0  0  0
   -0.8710   61.4210   77.3060 C   0  0  0  0  0  0  0  0  0  0  0  0
    0.1160   60.4470   77.4640 C   0  0  0  0  0  0  0  0  0  0  0  0
    1.1650   60.3580   76.5490 C   0  0  0  0  0  0  0  0  0  0  0  0
   -2.8620   63.1830   79.4970 C   0  0  0  0  0  0  0  0  0  0  0  0
   -4.2200   61.5940   78.1140 C   0  0  0  0  0  0  0  0  0  0  0  0
    5.3050   60.4560   70.3980 C   0  0  0  0  0  0  0  0  0  0  0  0
    3.8220   60.2160   70.4760 C   0  0  0  0  0  0  0  0  0  0  0  0
    2.9630   60.8940   71.2640 C   0  0  0  0  0  0  0  0  0  0  0  0
    3.3310   59.1070   69.5830 C   0  0  0  0  0  0  0  0  0  0  0  0
    1.1640   66.6170   69.0020 O   0  0  0  0  0  0  0  0  0  0  0  0
    2.1040   59.3830   76.7290 O   0  0  0  0  0  0  0  0  0  0  0  0
    4.1951   61.8749   72.7665 H   0  0  0  0  0  0  0  0  0  0  0  0
    3.0953   64.9808   69.5626 H   0  0  0  0  0  0  0  0  0  0  0  0
   -0.8326   66.3343   70.7412 H   0  0  0  0  0  0  0  0  0  0  0  0
   -0.8164   64.7255   72.6490 H   0  0  0  0  0  0  0  0  0  0  0  0
   -1.8638   64.0348   75.2705 H   0  0  0  0  0  0  0  0  0  0  0  0
   -3.6330   64.1017   76.9190 H   0  0  0  0  0  0  0  0  0  0  0  0
    0.0665   59.7480   78.3119 H   0  0  0  0  0  0  0  0  0  0  0  0
   -2.9049   62.4882   80.3487 H   0  0  0  0  0  0  0  0  0  0  0  0
   -1.9265   63.7600   79.5413 H   0  0  0  0  0  0  0  0  0  0  0  0
   -3.7194   63.8707   79.5413 H   0  0  0  0  0  0  0  0  0  0  0  0
   -4.5752   61.3783   79.1325 H   0  0  0  0  0  0  0  0  0  0  0  0
   -4.9782   62.1844   77.5786 H   0  0  0  0  0  0  0  0  0  0  0  0
   -4.0457   60.6490   77.5786 H   0  0  0  0  0  0  0  0  0  0  0  0
    5.7195   60.5231   71.4147 H   0  0  0  0  0  0  0  0  0  0  0  0
    5.7834   59.6236   69.8611 H   0  0  0  0  0  0  0  0  0  0  0  0
    5.4964   61.3968   69.8611 H   0  0  0  0  0  0  0  0  0  0  0  0
    1.9108   60.5793   71.2016 H   0  0  0  0  0  0  0  0  0  0  0  0
    2.9625   58.2748   70.2007 H   0  0  0  0  0  0  0  0  0  0  0  0
    2.5147   59.4817   68.9480 H   0  0  0  0  0  0  0  0  0  0  0  0
    4.1572   58.7545   68.9480 H   0  0  0  0  0  0  0  0  0  0  0  0
    0.3975   67.2213   68.8368 H   0  0  0  0  0  0  0  0  0  0  0  0
    2.8584   59.2989   76.0934 H   0  0  0  0  0  0  0  0  0  0  0  0
  2  1  1  0
  3  2  1  0
  4  3  2  0
  5  4  1  0
  6  5  2  0
  7  6  1  0
  8  7  2  0
  8  3  1  0
  9  8  1  0
 10  9  2  0
 10  1  1  0
 11 10  1  0
 12 11  2  0
 13 11  1  0
 14 13  2  0
 15  9  1  0
 15 14  1  0
 16 14  1  0
 17 16  1  0
 18 17  2  0
 19 18  1  0
 20 19  1  0
 21 20  1  0
 21 16  2  0
 22 21  1  0
 23 22  2  0
 23 13  1  0
 24 19  1  0
 25 19  1  0
 27 26  1  0
 28  1  1  0
 28 27  2  3
 29 27  1  0
 30  5  1  0
 31 23  1  0
  1 32  1  1
  4 33  1  0
  6 34  1  0
  7 35  1  0
 17 36  1  0
 18 37  1  0
 22 38  1  0
 24 39  1  0
 24 40  1  0
 24 41  1  0
 25 42  1  0
 25 43  1  0
 25 44  1  0
 26 45  1  0
 26 46  1  0
 26 47  1  0
 28 48  1  0
 29 49  1  0
 29 50  1  0
 29 51  1  0
 30 52  1  0
 31 53  1  0
M  END
>  <score>  (9) 
-7.539

$$$$
