=
     RDKit          3D

 26 27  0  0  0  0  0  0  0  0999 V2000
    1.4590   69.9430   67.8790 O   0  0  0  0  0  0  0  0  0  0  0  0
    1.9710   69.1430   67.1070 C   0  0  0  0  0  0  0  0  0  0  0  0
    3.2820   69.3750   66.4800 C   0  0  0  0  0  0  0  0  0  0  0  0
    4.3820   69.7540   67.2450 C   0  0  0  0  0  0  0  0  0  0  0  0
    4.2660   69.9510   68.5660 F   0  0  0  0  0  0  0  0  0  0  0  0
    5.6230   69.9780   66.6500 C   0  0  0  0  0  0  0  0  0  0  0  0
    5.7700   69.8230   65.2720 C   0  0  0  0  0  0  0  0  0  0  0  0
    4.6720   69.4490   64.4990 C   0  0  0  0  0  0  0  0  0  0  0  0
    3.4340   69.2290   65.1050 C   0  0  0  0  0  0  0  0  0  0  0  0
    2.4100   68.8500   64.3300 F   0  0  0  0  0  0  0  0  0  0  0  0
    1.2160   67.8780   66.7770 C   0  0  0  0  0  0  0  0  0  0  0  0
    1.8570   66.8610   66.5460 O   0  0  0  0  0  0  0  0  0  0  0  0
   -0.2520   67.9170   66.7320 C   0  0  0  0  0  0  0  0  0  0  0  0
   -1.0150   67.2300   67.6730 C   0  0  0  0  0  0  0  0  0  0  0  0
   -0.4290   66.4880   68.6240 F   0  0  0  0  0  0  0  0  0  0  0  0
   -2.4090   67.2650   67.6260 C   0  0  0  0  0  0  0  0  0  0  0  0
   -3.0520   67.9920   66.6260 C   0  0  0  0  0  0  0  0  0  0  0  0
   -2.2960   68.6770   65.6760 C   0  0  0  0  0  0  0  0  0  0  0  0
   -0.9020   68.6350   65.7310 C   0  0  0  0  0  0  0  0  0  0  0  0
   -0.2120   69.3250   64.8140 F   0  0  0  0  0  0  0  0  0  0  0  0
    6.4840   70.2763   67.2662 H   0  0  0  0  0  0  0  0  0  0  0  0
    6.7474   69.9950   64.7975 H   0  0  0  0  0  0  0  0  0  0  0  0
    4.7812   69.3272   63.4112 H   0  0  0  0  0  0  0  0  0  0  0  0
   -2.9995   66.7197   68.3770 H   0  0  0  0  0  0  0  0  0  0  0  0
   -4.1508   68.0252   66.5865 H   0  0  0  0  0  0  0  0  0  0  0  0
   -2.7981   69.2506   64.8830 H   0  0  0  0  0  0  0  0  0  0  0  0
  2  1  2  0
  3  2  1  0
  4  3  2  0
  5  4  1  0
  6  4  1  0
  7  6  2  0
  8  7  1  0
  9  8  2  0
  9  3  1  0
 10  9  1  0
 11  2  1  0
 12 11  2  0
 13 11  1  0
 14 13  2  0
 15 14  1  0
 16 14  1  0
 17 16  2  0
 18 17  1  0
 19 18  2  0
 19 13  1  0
 20 19  1  0
  6 21  1  0
  7 22  1  0
  8 23  1  0
 16 24  1  0
 17 25  1  0
 18 26  1  0
M  END
>  <score>  (1) 
-9.78

$$$$
=
     RDKit          3D

 26 27  0  0  0  0  0  0  0  0999 V2000
    1.8420   66.9370   66.8130 O   0  0  0  0  0  0  0  0  0  0  0  0
    1.1690   67.9490   66.9580 C   0  0  0  0  0  0  0  0  0  0  0  0
   -0.2940   67.9560   66.8150 C   0  0  0  0  0  0  0  0  0  0  0  0
   -0.9070   68.6590   65.7810 C   0  0  0  0  0  0  0  0  0  0  0  0
   -0.1810   69.3740   64.9100 F   0  0  0  0  0  0  0  0  0  0  0  0
   -2.2960   68.6680   65.6480 C   0  0  0  0  0  0  0  0  0  0  0  0
   -3.0850   67.9690   66.5600 C   0  0  0  0  0  0  0  0  0  0  0  0
   -2.4780   67.2680   67.6010 C   0  0  0  0  0  0  0  0  0  0  0  0
   -1.0880   67.2660   67.7250 C   0  0  0  0  0  0  0  0  0  0  0  0
   -0.5440   66.5620   68.7260 F   0  0  0  0  0  0  0  0  0  0  0  0
    1.8780   69.2430   67.2830 C   0  0  0  0  0  0  0  0  0  0  0  0
    1.2870   70.0780   67.9550 O   0  0  0  0  0  0  0  0  0  0  0  0
    3.2390   69.4560   66.7710 C   0  0  0  0  0  0  0  0  0  0  0  0
    4.2730   69.8330   67.6250 C   0  0  0  0  0  0  0  0  0  0  0  0
    4.0460   70.0440   68.9290 F   0  0  0  0  0  0  0  0  0  0  0  0
    5.5630   70.0400   67.1370 C   0  0  0  0  0  0  0  0  0  0  0  0
    5.8270   69.8710   65.7780 C   0  0  0  0  0  0  0  0  0  0  0  0
    4.7960   69.5000   64.9150 C   0  0  0  0  0  0  0  0  0  0  0  0
    3.5090   69.2970   65.4140 C   0  0  0  0  0  0  0  0  0  0  0  0
    2.5510   68.9190   64.5570 F   0  0  0  0  0  0  0  0  0  0  0  0
   -2.7673   69.2255   64.8252 H   0  0  0  0  0  0  0  0  0  0  0  0
   -4.1803   67.9705   66.4589 H   0  0  0  0  0  0  0  0  0  0  0  0
   -3.0952   66.7160   68.3252 H   0  0  0  0  0  0  0  0  0  0  0  0
    6.3707   70.3360   67.8226 H   0  0  0  0  0  0  0  0  0  0  0  0
    6.8435   70.0295   65.3886 H   0  0  0  0  0  0  0  0  0  0  0  0
    4.9974   69.3676   63.8417 H   0  0  0  0  0  0  0  0  0  0  0  0
  2  1  2  0
  3  2  1  0
  4  3  2  0
  5  4  1  0
  6  4  1  0
  7  6  2  0
  8  7  1  0
  9  8  2  0
  9  3  1  0
 10  9  1  0
 11  2  1  0
 12 11  2  0
 13 11  1  0
 14 13  2  0
 15 14  1  0
 16 14  1  0
 17 16  2  0
 18 17  1  0
 19 18  2  0
 19 13  1  0
 20 19  1  0
  6 21  1  0
  7 22  1  0
  8 23  1  0
 16 24  1  0
 17 25  1  0
 18 26  1  0
M  END
>  <score>  (2) 
-9.771

$$$$
=
     RDKit          3D

 26 27  0  0  0  0  0  0  0  0999 V2000
    1.3390   70.0450   68.0030 O   0  0  0  0  0  0  0  0  0  0  0  0
    1.9160   69.2230   67.3030 C   0  0  0  0  0  0  0  0  0  0  0  0
    3.2610   69.4530   66.7550 C   0  0  0  0  0  0  0  0  0  0  0  0
    3.5180   69.2780   65.3980 C   0  0  0  0  0  0  0  0  0  0  0  0
    2.5550   68.8650   64.5620 F   0  0  0  0  0  0  0  0  0  0  0  0
    4.7950   69.4920   64.8790 C   0  0  0  0  0  0  0  0  0  0  0  0
    5.8310   69.8820   65.7250 C   0  0  0  0  0  0  0  0  0  0  0  0
    5.5830   70.0530   67.0860 C   0  0  0  0  0  0  0  0  0  0  0  0
    4.3020   69.8360   67.5940 C   0  0  0  0  0  0  0  0  0  0  0  0
    4.1000   70.0320   68.9040 F   0  0  0  0  0  0  0  0  0  0  0  0
    1.2060   67.9290   66.9810 C   0  0  0  0  0  0  0  0  0  0  0  0
    1.8780   66.9180   66.8310 O   0  0  0  0  0  0  0  0  0  0  0  0
   -0.2580   67.9360   66.8480 C   0  0  0  0  0  0  0  0  0  0  0  0
   -0.8800   68.6630   65.8350 C   0  0  0  0  0  0  0  0  0  0  0  0
   -0.1610   69.4010   64.9770 F   0  0  0  0  0  0  0  0  0  0  0  0
   -2.2690   68.6720   65.7120 C   0  0  0  0  0  0  0  0  0  0  0  0
   -3.0510   67.9490   66.6130 C   0  0  0  0  0  0  0  0  0  0  0  0
   -2.4360   67.2240   67.6340 C   0  0  0  0  0  0  0  0  0  0  0  0
   -1.0450   67.2220   67.7480 C   0  0  0  0  0  0  0  0  0  0  0  0
   -0.4920   66.4960   68.7270 F   0  0  0  0  0  0  0  0  0  0  0  0
    4.9836   69.3531   63.8042 H   0  0  0  0  0  0  0  0  0  0  0  0
    6.8395   70.0541   65.3210 H   0  0  0  0  0  0  0  0  0  0  0  0
    6.3972   70.3590   67.7593 H   0  0  0  0  0  0  0  0  0  0  0  0
   -2.7471   69.2481   64.9061 H   0  0  0  0  0  0  0  0  0  0  0  0
   -4.1470   67.9505   66.5189 H   0  0  0  0  0  0  0  0  0  0  0  0
   -3.0473   66.6540   68.3491 H   0  0  0  0  0  0  0  0  0  0  0  0
  2  1  2  0
  3  2  1  0
  4  3  2  0
  5  4  1  0
  6  4  1  0
  7  6  2  0
  8  7  1  0
  9  8  2  0
  9  3  1  0
 10  9  1  0
 11  2  1  0
 12 11  2  0
 13 11  1  0
 14 13  2  0
 15 14  1  0
 16 14  1  0
 17 16  2  0
 18 17  1  0
 19 18  2  0
 19 13  1  0
 20 19  1  0
  6 21  1  0
  7 22  1  0
  8 23  1  0
 16 24  1  0
 17 25  1  0
 18 26  1  0
M  END
>  <score>  (3) 
-9.742

$$$$
=
     RDKit          3D

 26 27  0  0  0  0  0  0  0  0999 V2000
    1.3890   70.0090   67.9960 O   0  0  0  0  0  0  0  0  0  0  0  0
    1.9590   69.2000   67.2760 C   0  0  0  0  0  0  0  0  0  0  0  0
    3.3060   69.4330   66.7330 C   0  0  0  0  0  0  0  0  0  0  0  0
    4.3480   69.8440   67.5600 C   0  0  0  0  0  0  0  0  0  0  0  0
    4.1430   70.0680   68.8660 F   0  0  0  0  0  0  0  0  0  0  0  0
    5.6240   70.0690   67.0440 C   0  0  0  0  0  0  0  0  0  0  0  0
    5.8650   69.8850   65.6830 C   0  0  0  0  0  0  0  0  0  0  0  0
    4.8240   69.4800   64.8480 C   0  0  0  0  0  0  0  0  0  0  0  0
    3.5520   69.2580   65.3750 C   0  0  0  0  0  0  0  0  0  0  0  0
    2.5850   68.8490   64.5420 F   0  0  0  0  0  0  0  0  0  0  0  0
    1.2400   67.9190   66.9230 C   0  0  0  0  0  0  0  0  0  0  0  0
    1.9060   66.9080   66.7460 O   0  0  0  0  0  0  0  0  0  0  0  0
   -0.2240   67.9390   66.7930 C   0  0  0  0  0  0  0  0  0  0  0  0
   -0.8420   68.6750   65.7840 C   0  0  0  0  0  0  0  0  0  0  0  0
   -0.1190   69.4100   64.9280 F   0  0  0  0  0  0  0  0  0  0  0  0
   -2.2310   68.6970   65.6650 C   0  0  0  0  0  0  0  0  0  0  0  0
   -3.0170   67.9780   66.5650 C   0  0  0  0  0  0  0  0  0  0  0  0
   -2.4060   67.2440   67.5810 C   0  0  0  0  0  0  0  0  0  0  0  0
   -1.0150   67.2290   67.6920 C   0  0  0  0  0  0  0  0  0  0  0  0
   -0.4660   66.4940   68.6670 F   0  0  0  0  0  0  0  0  0  0  0  0
    6.4386   70.3910   67.7093 H   0  0  0  0  0  0  0  0  0  0  0  0
    6.8699   70.0582   65.2705 H   0  0  0  0  0  0  0  0  0  0  0  0
    5.0063   69.3355   63.7729 H   0  0  0  0  0  0  0  0  0  0  0  0
   -2.7060   69.2805   64.8626 H   0  0  0  0  0  0  0  0  0  0  0  0
   -4.1132   67.9898   66.4739 H   0  0  0  0  0  0  0  0  0  0  0  0
   -3.0207   66.6766   68.2953 H   0  0  0  0  0  0  0  0  0  0  0  0
  2  1  2  0
  3  2  1  0
  4  3  2  0
  5  4  1  0
  6  4  1  0
  7  6  2  0
  8  7  1  0
  9  8  2  0
  9  3  1  0
 10  9  1  0
 11  2  1  0
 12 11  2  0
 13 11  1  0
 14 13  2  0
 15 14  1  0
 16 14  1  0
 17 16  2  0
 18 17  1  0
 19 18  2  0
 19 13  1  0
 20 19  1  0
  6 21  1  0
  7 22  1  0
  8 23  1  0
 16 24  1  0
 17 25  1  0
 18 26  1  0
M  END
>  <score>  (4) 
-9.739

$$$$
=
     RDKit          3D

 26 27  0  0  0  0  0  0  0  0999 V2000
    1.7630   66.9380   66.7000 O   0  0  0  0  0  0  0  0  0  0  0  0
    1.1060   67.9580   66.8620 C   0  0  0  0  0  0  0  0  0  0  0  0
   -0.3550   67.9940   66.7010 C   0  0  0  0  0  0  0  0  0  0  0  0
   -0.9410   68.7000   65.6540 C   0  0  0  0  0  0  0  0  0  0  0  0
   -0.1890   69.3910   64.7840 F   0  0  0  0  0  0  0  0  0  0  0  0
   -2.3270   68.7370   65.5030 C   0  0  0  0  0  0  0  0  0  0  0  0
   -3.1410   68.0630   66.4120 C   0  0  0  0  0  0  0  0  0  0  0  0
   -2.5630   67.3600   67.4680 C   0  0  0  0  0  0  0  0  0  0  0  0
   -1.1750   67.3300   67.6080 C   0  0  0  0  0  0  0  0  0  0  0  0
   -0.6570   66.6250   68.6230 F   0  0  0  0  0  0  0  0  0  0  0  0
    1.8330   69.2310   67.2290 C   0  0  0  0  0  0  0  0  0  0  0  0
    1.2530   70.0520   67.9260 O   0  0  0  0  0  0  0  0  0  0  0  0
    3.1980   69.4400   66.7260 C   0  0  0  0  0  0  0  0  0  0  0  0
    3.4960   69.2710   65.3760 C   0  0  0  0  0  0  0  0  0  0  0  0
    2.5520   68.8830   64.5070 F   0  0  0  0  0  0  0  0  0  0  0  0
    4.7930   69.4650   64.9010 C   0  0  0  0  0  0  0  0  0  0  0  0
    5.8090   69.8290   65.7840 C   0  0  0  0  0  0  0  0  0  0  0  0
    5.5200   69.9930   67.1380 C   0  0  0  0  0  0  0  0  0  0  0  0
    4.2190   69.7960   67.6030 C   0  0  0  0  0  0  0  0  0  0  0  0
    3.9780   69.9850   68.9070 F   0  0  0  0  0  0  0  0  0  0  0  0
   -2.7764   69.2963   64.6692 H   0  0  0  0  0  0  0  0  0  0  0  0
   -4.2347   68.0857   66.2966 H   0  0  0  0  0  0  0  0  0  0  0  0
   -3.2007   66.8293   68.1904 H   0  0  0  0  0  0  0  0  0  0  0  0
    5.0140   69.3311   63.8318 H   0  0  0  0  0  0  0  0  0  0  0  0
    6.8330   69.9859   65.4142 H   0  0  0  0  0  0  0  0  0  0  0  0
    6.3176   70.2777   67.8399 H   0  0  0  0  0  0  0  0  0  0  0  0
  2  1  2  0
  3  2  1  0
  4  3  2  0
  5  4  1  0
  6  4  1  0
  7  6  2  0
  8  7  1  0
  9  8  2  0
  9  3  1  0
 10  9  1  0
 11  2  1  0
 12 11  2  0
 13 11  1  0
 14 13  2  0
 15 14  1  0
 16 14  1  0
 17 16  2  0
 18 17  1  0
 19 18  2  0
 19 13  1  0
 20 19  1  0
  6 21  1  0
  7 22  1  0
  8 23  1  0
 16 24  1  0
 17 25  1  0
 18 26  1  0
M  END
>  <score>  (5) 
-9.735

$$$$
=
     RDKit          3D

 26 27  0  0  0  0  0  0  0  0999 V2000
    1.2580   69.1670   64.3170 O   0  0  0  0  0  0  0  0  0  0  0  0
    2.4110   68.7560   64.3240 C   0  0  0  0  0  0  0  0  0  0  0  0
    3.4130   69.2210   65.2940 C   0  0  0  0  0  0  0  0  0  0  0  0
    4.6920   69.5870   64.8810 C   0  0  0  0  0  0  0  0  0  0  0  0
    5.0510   69.4920   63.5930 F   0  0  0  0  0  0  0  0  0  0  0  0
    5.6430   70.0240   65.8020 C   0  0  0  0  0  0  0  0  0  0  0  0
    5.3170   70.0960   67.1550 C   0  0  0  0  0  0  0  0  0  0  0  0
    4.0410   69.7250   67.5780 C   0  0  0  0  0  0  0  0  0  0  0  0
    3.0970   69.2890   66.6480 C   0  0  0  0  0  0  0  0  0  0  0  0
    1.8760   68.9630   67.0920 F   0  0  0  0  0  0  0  0  0  0  0  0
    2.8180   67.7400   63.2830 C   0  0  0  0  0  0  0  0  0  0  0  0
    2.6730   68.0260   62.1020 O   0  0  0  0  0  0  0  0  0  0  0  0
    3.3570   66.4460   63.7250 C   0  0  0  0  0  0  0  0  0  0  0  0
    4.5850   65.9850   63.2550 C   0  0  0  0  0  0  0  0  0  0  0  0
    5.2900   66.6950   62.3640 F   0  0  0  0  0  0  0  0  0  0  0  0
    5.0930   64.7550   63.6720 C   0  0  0  0  0  0  0  0  0  0  0  0
    4.3660   63.9700   64.5670 C   0  0  0  0  0  0  0  0  0  0  0  0
    3.1330   64.4210   65.0360 C   0  0  0  0  0  0  0  0  0  0  0  0
    2.6330   65.6530   64.6120 C   0  0  0  0  0  0  0  0  0  0  0  0
    1.4560   66.0610   65.1040 F   0  0  0  0  0  0  0  0  0  0  0  0
    6.6487   70.3114   65.4614 H   0  0  0  0  0  0  0  0  0  0  0  0
    6.0623   70.4437   67.8855 H   0  0  0  0  0  0  0  0  0  0  0  0
    3.7788   69.7762   68.6451 H   0  0  0  0  0  0  0  0  0  0  0  0
    6.0654   64.4044   63.2958 H   0  0  0  0  0  0  0  0  0  0  0  0
    4.7635   63.0002   64.9010 H   0  0  0  0  0  0  0  0  0  0  0  0
    2.5541   63.8056   65.7404 H   0  0  0  0  0  0  0  0  0  0  0  0
  2  1  2  0
  3  2  1  0
  4  3  2  0
  5  4  1  0
  6  4  1  0
  7  6  2  0
  8  7  1  0
  9  8  2  0
  9  3  1  0
 10  9  1  0
 11  2  1  0
 12 11  2  0
 13 11  1  0
 14 13  2  0
 15 14  1  0
 16 14  1  0
 17 16  2  0
 18 17  1  0
 19 18  2  0
 19 13  1  0
 20 19  1  0
  6 21  1  0
  7 22  1  0
  8 23  1  0
 16 24  1  0
 17 25  1  0
 18 26  1  0
M  END
>  <score>  (6) 
-9.354

$$$$
=
     RDKit          3D

 26 27  0  0  0  0  0  0  0  0999 V2000
    2.6190   69.2990   64.5400 O   0  0  0  0  0  0  0  0  0  0  0  0
    2.6220   68.8480   65.6780 C   0  0  0  0  0  0  0  0  0  0  0  0
    3.3730   69.4740   66.7770 C   0  0  0  0  0  0  0  0  0  0  0  0
    2.7180   69.9440   67.9130 C   0  0  0  0  0  0  0  0  0  0  0  0
    1.3840   69.8660   68.0190 F   0  0  0  0  0  0  0  0  0  0  0  0
    3.4300   70.5420   68.9530 C   0  0  0  0  0  0  0  0  0  0  0  0
    4.8140   70.6760   68.8580 C   0  0  0  0  0  0  0  0  0  0  0  0
    5.4760   70.2140   67.7210 C   0  0  0  0  0  0  0  0  0  0  0  0
    4.7540   69.6190   66.6870 C   0  0  0  0  0  0  0  0  0  0  0  0
    5.4300   69.1680   65.6220 F   0  0  0  0  0  0  0  0  0  0  0  0
    1.8320   67.5910   65.9550 C   0  0  0  0  0  0  0  0  0  0  0  0
    2.3880   66.5100   65.8060 O   0  0  0  0  0  0  0  0  0  0  0  0
    0.4300   67.7110   66.3790 C   0  0  0  0  0  0  0  0  0  0  0  0
   -0.5110   68.3360   65.5640 C   0  0  0  0  0  0  0  0  0  0  0  0
   -0.1560   68.8720   64.3890 F   0  0  0  0  0  0  0  0  0  0  0  0
   -1.8410   68.4530   65.9700 C   0  0  0  0  0  0  0  0  0  0  0  0
   -2.2380   67.9430   67.2060 C   0  0  0  0  0  0  0  0  0  0  0  0
   -1.3000   67.3220   68.0290 C   0  0  0  0  0  0  0  0  0  0  0  0
    0.0280   67.2100   67.6140 C   0  0  0  0  0  0  0  0  0  0  0  0
    0.8930   66.5870   68.4250 F   0  0  0  0  0  0  0  0  0  0  0  0
    2.9006   70.9068   69.8455 H   0  0  0  0  0  0  0  0  0  0  0  0
    5.3814   71.1439   69.6760 H   0  0  0  0  0  0  0  0  0  0  0  0
    6.5680   70.3189   67.6397 H   0  0  0  0  0  0  0  0  0  0  0  0
   -2.5751   68.9467   65.3163 H   0  0  0  0  0  0  0  0  0  0  0  0
   -3.2857   68.0304   67.5295 H   0  0  0  0  0  0  0  0  0  0  0  0
   -1.6064   66.9200   69.0060 H   0  0  0  0  0  0  0  0  0  0  0  0
  2  1  2  0
  3  2  1  0
  4  3  2  0
  5  4  1  0
  6  4  1  0
  7  6  2  0
  8  7  1  0
  9  8  2  0
  9  3  1  0
 10  9  1  0
 11  2  1  0
 12 11  2  0
 13 11  1  0
 14 13  2  0
 15 14  1  0
 16 14  1  0
 17 16  2  0
 18 17  1  0
 19 18  2  0
 19 13  1  0
 20 19  1  0
  6 21  1  0
  7 22  1  0
  8 23  1  0
 16 24  1  0
 17 25  1  0
 18 26  1  0
M  END
>  <score>  (7) 
-9.346

$$$$
=
     RDKit          3D

 26 27  0  0  0  0  0  0  0  0999 V2000
    2.5030   66.2790   65.6440 O   0  0  0  0  0  0  0  0  0  0  0  0
    2.3750   67.4610   65.3510 C   0  0  0  0  0  0  0  0  0  0  0  0
    2.9040   68.0290   64.1030 C   0  0  0  0  0  0  0  0  0  0  0  0
    2.0850   68.1890   62.9880 C   0  0  0  0  0  0  0  0  0  0  0  0
    0.8030   67.7980   63.0140 F   0  0  0  0  0  0  0  0  0  0  0  0
    2.5880   68.7250   61.8020 C   0  0  0  0  0  0  0  0  0  0  0  0
    3.9270   69.1050   61.7260 C   0  0  0  0  0  0  0  0  0  0  0  0
    4.7550   68.9420   62.8360 C   0  0  0  0  0  0  0  0  0  0  0  0
    4.2410   68.4040   64.0170 C   0  0  0  0  0  0  0  0  0  0  0  0
    5.0640   68.2850   65.0670 F   0  0  0  0  0  0  0  0  0  0  0  0
    1.6570   68.3680   66.3220 C   0  0  0  0  0  0  0  0  0  0  0  0
    2.2250   69.3850   66.6980 O   0  0  0  0  0  0  0  0  0  0  0  0
    0.3150   67.9910   66.7880 C   0  0  0  0  0  0  0  0  0  0  0  0
    0.1480   67.2100   67.9290 C   0  0  0  0  0  0  0  0  0  0  0  0
    1.2070   66.7550   68.6130 F   0  0  0  0  0  0  0  0  0  0  0  0
   -1.1260   66.8490   68.3670 C   0  0  0  0  0  0  0  0  0  0  0  0
   -2.2500   67.2690   67.6560 C   0  0  0  0  0  0  0  0  0  0  0  0
   -2.0910   68.0450   66.5090 C   0  0  0  0  0  0  0  0  0  0  0  0
   -0.8110   68.4000   66.0790 C   0  0  0  0  0  0  0  0  0  0  0  0
   -0.7020   69.1660   64.9860 F   0  0  0  0  0  0  0  0  0  0  0  0
    1.9297   68.8474   60.9293 H   0  0  0  0  0  0  0  0  0  0  0  0
    4.3285   69.5314   60.7949 H   0  0  0  0  0  0  0  0  0  0  0  0
    5.8132   69.2374   62.7810 H   0  0  0  0  0  0  0  0  0  0  0  0
   -1.2441   66.2342   69.2715 H   0  0  0  0  0  0  0  0  0  0  0  0
   -3.2571   66.9892   67.9987 H   0  0  0  0  0  0  0  0  0  0  0  0
   -2.9736   68.3775   65.9429 H   0  0  0  0  0  0  0  0  0  0  0  0
  2  1  2  0
  3  2  1  0
  4  3  2  0
  5  4  1  0
  6  4  1  0
  7  6  2  0
  8  7  1  0
  9  8  2  0
  9  3  1  0
 10  9  1  0
 11  2  1  0
 12 11  2  0
 13 11  1  0
 14 13  2  0
 15 14  1  0
 16 14  1  0
 17 16  2  0
 18 17  1  0
 19 18  2  0
 19 13  1  0
 20 19  1  0
  6 21  1  0
  7 22  1  0
  8 23  1  0
 16 24  1  0
 17 25  1  0
 18 26  1  0
M  END
>  <score>  (8) 
-9.114

$$$$
=
     RDKit          3D

 26 27  0  0  0  0  0  0  0  0999 V2000
    2.2290   69.3810   66.7300 O   0  0  0  0  0  0  0  0  0  0  0  0
    1.6630   68.3680   66.3410 C   0  0  0  0  0  0  0  0  0  0  0  0
    0.3080   68.0000   66.7780 C   0  0  0  0  0  0  0  0  0  0  0  0
    0.1110   67.2210   67.9150 C   0  0  0  0  0  0  0  0  0  0  0  0
    1.1520   66.7610   68.6230 F   0  0  0  0  0  0  0  0  0  0  0  0
   -1.1750   66.8690   68.3270 C   0  0  0  0  0  0  0  0  0  0  0  0
   -2.2800   67.2960   67.5930 C   0  0  0  0  0  0  0  0  0  0  0  0
   -2.0900   68.0700   66.4480 C   0  0  0  0  0  0  0  0  0  0  0  0
   -0.8000   68.4160   66.0460 C   0  0  0  0  0  0  0  0  0  0  0  0
   -0.6620   69.1790   64.9530 F   0  0  0  0  0  0  0  0  0  0  0  0
    2.3960   67.4560   65.3850 C   0  0  0  0  0  0  0  0  0  0  0  0
    2.4770   66.2670   65.6620 O   0  0  0  0  0  0  0  0  0  0  0  0
    2.9940   68.0310   64.1720 C   0  0  0  0  0  0  0  0  0  0  0  0
    4.3240   68.4440   64.1570 C   0  0  0  0  0  0  0  0  0  0  0  0
    5.0830   68.3580   65.2580 F   0  0  0  0  0  0  0  0  0  0  0  0
    4.8880   68.9940   63.0060 C   0  0  0  0  0  0  0  0  0  0  0  0
    4.1160   69.1370   61.8540 C   0  0  0  0  0  0  0  0  0  0  0  0
    2.7810   68.7320   61.8630 C   0  0  0  0  0  0  0  0  0  0  0  0
    2.2270   68.1840   63.0200 C   0  0  0  0  0  0  0  0  0  0  0  0
    0.9480   67.7860   62.9810 F   0  0  0  0  0  0  0  0  0  0  0  0
   -1.3162   66.2558   69.2292 H   0  0  0  0  0  0  0  0  0  0  0  0
   -3.2962   67.0243   67.9146 H   0  0  0  0  0  0  0  0  0  0  0  0
   -2.9577   68.4075   65.8621 H   0  0  0  0  0  0  0  0  0  0  0  0
    5.9403   69.3144   63.0072 H   0  0  0  0  0  0  0  0  0  0  0  0
    4.5572   69.5669   60.9427 H   0  0  0  0  0  0  0  0  0  0  0  0
    2.1656   68.8447   60.9582 H   0  0  0  0  0  0  0  0  0  0  0  0
  2  1  2  0
  3  2  1  0
  4  3  2  0
  5  4  1  0
  6  4  1  0
  7  6  2  0
  8  7  1  0
  9  8  2  0
  9  3  1  0
 10  9  1  0
 11  2  1  0
 12 11  2  0
 13 11  1  0
 14 13  2  0
 15 14  1  0
 16 14  1  0
 17 16  2  0
 18 17  1  0
 19 18  2  0
 19 13  1  0
 20 19  1  0
  6 21  1  0
  7 22  1  0
  8 23  1  0
 16 24  1  0
 17 25  1  0
 18 26  1  0
M  END
>  <score>  (9) 
-9.099

$$$$
