=
     RDKit          3D

 18 18  0  0  0  0  0  0  0  0999 V2000
    5.0980   69.7640   65.9570 C   0  0  0  0  0  0  0  0  0  0  0  0
    5.2680   69.5860   64.5770 C   0  0  0  0  0  0  0  0  0  0  0  0
    4.2170   69.1200   63.7800 C   0  0  0  0  0  0  0  0  0  0  0  0
    2.9820   68.8250   64.3510 C   0  0  0  0  0  0  0  0  0  0  0  0
    2.7960   68.9970   65.7190 C   0  0  0  0  0  0  0  0  0  0  0  0
    3.8470   69.4620   66.5150 C   0  0  0  0  0  0  0  0  0  0  0  0
    6.0040   70.6660   68.1210 C   0  0  0  0  0  0  0  0  0  0  0  0
    6.1620   70.2510   66.8560 C   0  0  0  0  0  0  0  0  0  0  0  0
    7.4770   70.6870   70.0050 O   0  0  0  0  0  0  0  0  0  0  0  0
    7.1740   71.1290   68.9040 C   0  0  0  0  0  0  0  0  0  0  0  0
    6.2396   69.8155   64.1152 H   0  0  0  0  0  0  0  0  0  0  0  0
    4.3669   68.9862   62.6985 H   0  0  0  0  0  0  0  0  0  0  0  0
    2.1568   68.4575   63.7232 H   0  0  0  0  0  0  0  0  0  0  0  0
    1.8215   68.7670   66.1745 H   0  0  0  0  0  0  0  0  0  0  0  0
    3.6905   69.5931   67.5959 H   0  0  0  0  0  0  0  0  0  0  0  0
    5.0038   70.6628   68.5787 H   0  0  0  0  0  0  0  0  0  0  0  0
    7.1836   70.2759   66.4489 H   0  0  0  0  0  0  0  0  0  0  0  0
    7.8079   71.9165   68.4703 H   0  0  0  0  0  0  0  0  0  0  0  0
  2  1  2  0
  3  2  1  0
  4  3  2  0
  5  4  1  0
  6  5  2  0
  6  1  1  0
  8  1  1  0
  8  7  2  0
 10  9  2  0
 10  7  1  0
  2 11  1  0
  3 12  1  0
  4 13  1  0
  5 14  1  0
  6 15  1  0
  7 16  1  0
  8 17  1  0
 10 18  1  0
M  END
>  <score>  (1) 
-7.012

$$$$
=
     RDKit          3D

 18 18  0  0  0  0  0  0  0  0999 V2000
    4.5700   69.8190   66.7910 C   0  0  0  0  0  0  0  0  0  0  0  0
    4.0350   70.1460   68.0450 C   0  0  0  0  0  0  0  0  0  0  0  0
    4.8490   70.6670   69.0570 C   0  0  0  0  0  0  0  0  0  0  0  0
    6.2070   70.8670   68.8310 C   0  0  0  0  0  0  0  0  0  0  0  0
    6.7550   70.5480   67.5920 C   0  0  0  0  0  0  0  0  0  0  0  0
    5.9420   70.0270   66.5810 C   0  0  0  0  0  0  0  0  0  0  0  0
    4.1470   69.1900   64.3950 C   0  0  0  0  0  0  0  0  0  0  0  0
    3.7720   69.2670   65.6800 C   0  0  0  0  0  0  0  0  0  0  0  0
    3.3140   68.8190   62.1840 O   0  0  0  0  0  0  0  0  0  0  0  0
    3.2320   68.6060   63.3870 C   0  0  0  0  0  0  0  0  0  0  0  0
    2.9628   69.9912   68.2356 H   0  0  0  0  0  0  0  0  0  0  0  0
    4.4134   70.9194   70.0350 H   0  0  0  0  0  0  0  0  0  0  0  0
    6.8452   71.2756   69.6283 H   0  0  0  0  0  0  0  0  0  0  0  0
    7.8280   70.7058   67.4082 H   0  0  0  0  0  0  0  0  0  0  0  0
    6.3846   69.7762   65.6057 H   0  0  0  0  0  0  0  0  0  0  0  0
    5.1361   69.5612   64.0887 H   0  0  0  0  0  0  0  0  0  0  0  0
    2.7726   68.8812   65.9299 H   0  0  0  0  0  0  0  0  0  0  0  0
    2.4304   67.9408   63.7406 H   0  0  0  0  0  0  0  0  0  0  0  0
  2  1  2  0
  3  2  1  0
  4  3  2  0
  5  4  1  0
  6  5  2  0
  6  1  1  0
  8  1  1  0
  8  7  2  0
 10  9  2  0
 10  7  1  0
  2 11  1  0
  3 12  1  0
  4 13  1  0
  5 14  1  0
  6 15  1  0
  7 16  1  0
  8 17  1  0
 10 18  1  0
M  END
>  <score>  (2) 
-7.005

$$$$
=
     RDKit          3D

 18 18  0  0  0  0  0  0  0  0999 V2000
    4.3450   69.7150   66.8870 C   0  0  0  0  0  0  0  0  0  0  0  0
    5.6610   69.8800   66.4340 C   0  0  0  0  0  0  0  0  0  0  0  0
    6.6310   70.4710   67.2510 C   0  0  0  0  0  0  0  0  0  0  0  0
    6.3000   70.9040   68.5320 C   0  0  0  0  0  0  0  0  0  0  0  0
    4.9970   70.7470   68.9970 C   0  0  0  0  0  0  0  0  0  0  0  0
    4.0280   70.1580   68.1800 C   0  0  0  0  0  0  0  0  0  0  0  0
    2.1040   68.6320   66.5380 C   0  0  0  0  0  0  0  0  0  0  0  0
    3.2730   69.1020   66.0800 C   0  0  0  0  0  0  0  0  0  0  0  0
    0.6750   66.9060   65.7020 O   0  0  0  0  0  0  0  0  0  0  0  0
    1.1200   68.0410   65.6000 C   0  0  0  0  0  0  0  0  0  0  0  0
    5.9346   69.5408   65.4240 H   0  0  0  0  0  0  0  0  0  0  0  0
    7.6591   70.5940   66.8797 H   0  0  0  0  0  0  0  0  0  0  0  0
    7.0638   71.3677   69.1735 H   0  0  0  0  0  0  0  0  0  0  0  0
    4.7300   71.0869   70.0085 H   0  0  0  0  0  0  0  0  0  0  0  0
    3.0012   70.0399   68.5564 H   0  0  0  0  0  0  0  0  0  0  0  0
    1.8744   68.6850   67.6125 H   0  0  0  0  0  0  0  0  0  0  0  0
    3.4500   69.0229   64.9972 H   0  0  0  0  0  0  0  0  0  0  0  0
    0.7687   68.6604   64.7616 H   0  0  0  0  0  0  0  0  0  0  0  0
  2  1  2  0
  3  2  1  0
  4  3  2  0
  5  4  1  0
  6  5  2  0
  6  1  1  0
  8  1  1  0
  8  7  2  0
 10  9  2  0
 10  7  1  0
  2 11  1  0
  3 12  1  0
  4 13  1  0
  5 14  1  0
  6 15  1  0
  7 16  1  0
  8 17  1  0
 10 18  1  0
M  END
>  <score>  (3) 
-7.002

$$$$
=
     RDKit          3D

 18 18  0  0  0  0  0  0  0  0999 V2000
    4.4810   69.5320   65.3870 C   0  0  0  0  0  0  0  0  0  0  0  0
    5.6920   70.0130   65.9020 C   0  0  0  0  0  0  0  0  0  0  0  0
    5.8080   70.3660   67.2510 C   0  0  0  0  0  0  0  0  0  0  0  0
    4.7150   70.2440   68.1040 C   0  0  0  0  0  0  0  0  0  0  0  0
    3.5040   69.7690   67.6100 C   0  0  0  0  0  0  0  0  0  0  0  0
    3.3890   69.4160   66.2620 C   0  0  0  0  0  0  0  0  0  0  0  0
    3.1820   68.5960   63.4490 C   0  0  0  0  0  0  0  0  0  0  0  0
    4.2870   69.1420   63.9780 C   0  0  0  0  0  0  0  0  0  0  0  0
    2.8370   69.0530   61.1280 O   0  0  0  0  0  0  0  0  0  0  0  0
    3.1370   68.2570   62.0070 C   0  0  0  0  0  0  0  0  0  0  0  0
    6.5626   70.1144   65.2374 H   0  0  0  0  0  0  0  0  0  0  0  0
    6.7665   70.7413   67.6388 H   0  0  0  0  0  0  0  0  0  0  0  0
    4.8081   70.5219   69.1642 H   0  0  0  0  0  0  0  0  0  0  0  0
    2.6371   69.6712   68.2800 H   0  0  0  0  0  0  0  0  0  0  0  0
    2.4276   69.0414   65.8808 H   0  0  0  0  0  0  0  0  0  0  0  0
    2.3075   68.3995   64.0867 H   0  0  0  0  0  0  0  0  0  0  0  0
    5.1309   69.3159   63.2942 H   0  0  0  0  0  0  0  0  0  0  0  0
    3.3884   67.2283   61.7094 H   0  0  0  0  0  0  0  0  0  0  0  0
  2  1  2  0
  3  2  1  0
  4  3  2  0
  5  4  1  0
  6  5  2  0
  6  1  1  0
  8  1  1  0
  8  7  2  0
 10  9  2  0
 10  7  1  0
  2 11  1  0
  3 12  1  0
  4 13  1  0
  5 14  1  0
  6 15  1  0
  7 16  1  0
  8 17  1  0
 10 18  1  0
M  END
>  <score>  (4) 
-6.805

$$$$
=
     RDKit          3D

 18 18  0  0  0  0  0  0  0  0999 V2000
    3.7150   69.1600   65.0660 C   0  0  0  0  0  0  0  0  0  0  0  0
    2.8360   68.7890   64.0400 C   0  0  0  0  0  0  0  0  0  0  0  0
    3.2840   68.6730   62.7190 C   0  0  0  0  0  0  0  0  0  0  0  0
    4.6170   68.9270   62.4070 C   0  0  0  0  0  0  0  0  0  0  0  0
    5.5040   69.2960   63.4140 C   0  0  0  0  0  0  0  0  0  0  0  0
    5.0550   69.4120   64.7330 C   0  0  0  0  0  0  0  0  0  0  0  0
    3.9470   70.0160   67.4180 C   0  0  0  0  0  0  0  0  0  0  0  0
    3.3120   69.3010   66.4780 C   0  0  0  0  0  0  0  0  0  0  0  0
    3.9220   70.7170   69.7040 O   0  0  0  0  0  0  0  0  0  0  0  0
    3.4170   70.0630   68.8010 C   0  0  0  0  0  0  0  0  0  0  0  0
    1.7808   68.5864   64.2755 H   0  0  0  0  0  0  0  0  0  0  0  0
    2.5810   68.3804   61.9251 H   0  0  0  0  0  0  0  0  0  0  0  0
    4.9678   68.8363   61.3684 H   0  0  0  0  0  0  0  0  0  0  0  0
    6.5582   69.4964   63.1722 H   0  0  0  0  0  0  0  0  0  0  0  0
    5.7630   69.7053   65.5221 H   0  0  0  0  0  0  0  0  0  0  0  0
    4.8630   70.5686   67.1620 H   0  0  0  0  0  0  0  0  0  0  0  0
    2.4020   68.7677   66.7902 H   0  0  0  0  0  0  0  0  0  0  0  0
    2.5159   69.4750   69.0298 H   0  0  0  0  0  0  0  0  0  0  0  0
  2  1  2  0
  3  2  1  0
  4  3  2  0
  5  4  1  0
  6  5  2  0
  6  1  1  0
  8  1  1  0
  8  7  2  0
 10  9  2  0
 10  7  1  0
  2 11  1  0
  3 12  1  0
  4 13  1  0
  5 14  1  0
  6 15  1  0
  7 16  1  0
  8 17  1  0
 10 18  1  0
M  END
>  <score>  (5) 
-6.341

$$$$
=
     RDKit          3D

 18 18  0  0  0  0  0  0  0  0999 V2000
    3.3010   69.0690   66.3800 C   0  0  0  0  0  0  0  0  0  0  0  0
    3.1630   68.3960   65.1590 C   0  0  0  0  0  0  0  0  0  0  0  0
    1.9920   67.6930   64.8560 C   0  0  0  0  0  0  0  0  0  0  0  0
    0.9420   67.6530   65.7690 C   0  0  0  0  0  0  0  0  0  0  0  0
    1.0620   68.3150   66.9870 C   0  0  0  0  0  0  0  0  0  0  0  0
    2.2330   69.0170   67.2900 C   0  0  0  0  0  0  0  0  0  0  0  0
    4.7110   70.4540   67.9330 C   0  0  0  0  0  0  0  0  0  0  0  0
    4.5060   69.8270   66.7650 C   0  0  0  0  0  0  0  0  0  0  0  0
    6.0900   72.3970   68.1320 O   0  0  0  0  0  0  0  0  0  0  0  0
    5.9800   71.1790   68.1750 C   0  0  0  0  0  0  0  0  0  0  0  0
    3.9858   68.4206   64.4293 H   0  0  0  0  0  0  0  0  0  0  0  0
    1.9007   67.1699   63.8927 H   0  0  0  0  0  0  0  0  0  0  0  0
    0.0216   67.1006   65.5287 H   0  0  0  0  0  0  0  0  0  0  0  0
    0.2353   68.2862   67.7120 H   0  0  0  0  0  0  0  0  0  0  0  0
    2.3186   69.5363   68.2559 H   0  0  0  0  0  0  0  0  0  0  0  0
    3.9353   70.4298   68.7126 H   0  0  0  0  0  0  0  0  0  0  0  0
    5.3153   69.8837   66.0222 H   0  0  0  0  0  0  0  0  0  0  0  0
    6.8774   70.5868   68.4073 H   0  0  0  0  0  0  0  0  0  0  0  0
  2  1  2  0
  3  2  1  0
  4  3  2  0
  5  4  1  0
  6  5  2  0
  6  1  1  0
  8  1  1  0
  8  7  2  0
 10  9  2  0
 10  7  1  0
  2 11  1  0
  3 12  1  0
  4 13  1  0
  5 14  1  0
  6 15  1  0
  7 16  1  0
  8 17  1  0
 10 18  1  0
M  END
>  <score>  (6) 
-6.048

$$$$
=
     RDKit          3D

 18 18  0  0  0  0  0  0  0  0999 V2000
    2.1350   68.6650   65.5070 C   0  0  0  0  0  0  0  0  0  0  0  0
    2.9470   69.1550   66.5380 C   0  0  0  0  0  0  0  0  0  0  0  0
    4.2510   69.5920   66.2780 C   0  0  0  0  0  0  0  0  0  0  0  0
    4.7610   69.5440   64.9840 C   0  0  0  0  0  0  0  0  0  0  0  0
    3.9680   69.0600   63.9480 C   0  0  0  0  0  0  0  0  0  0  0  0
    2.6660   68.6230   64.2090 C   0  0  0  0  0  0  0  0  0  0  0  0
   -0.1870   68.7760   66.4620 C   0  0  0  0  0  0  0  0  0  0  0  0
    0.7530   68.1890   65.7090 C   0  0  0  0  0  0  0  0  0  0  0  0
   -1.7420   66.9870   66.7740 O   0  0  0  0  0  0  0  0  0  0  0  0
   -1.5380   68.1760   66.5680 C   0  0  0  0  0  0  0  0  0  0  0  0
    2.5548   69.1968   67.5649 H   0  0  0  0  0  0  0  0  0  0  0  0
    4.8748   69.9747   67.0992 H   0  0  0  0  0  0  0  0  0  0  0  0
    5.7862   69.8871   64.7811 H   0  0  0  0  0  0  0  0  0  0  0  0
    4.3658   69.0212   62.9232 H   0  0  0  0  0  0  0  0  0  0  0  0
    2.0479   68.2401   63.3835 H   0  0  0  0  0  0  0  0  0  0  0  0
    0.0446   69.7055   67.0028 H   0  0  0  0  0  0  0  0  0  0  0  0
    0.4666   67.2619   65.1909 H   0  0  0  0  0  0  0  0  0  0  0  0
   -2.4088   68.8385   66.4548 H   0  0  0  0  0  0  0  0  0  0  0  0
  2  1  2  0
  3  2  1  0
  4  3  2  0
  5  4  1  0
  6  5  2  0
  6  1  1  0
  8  1  1  0
  8  7  2  0
 10  9  2  0
 10  7  1  0
  2 11  1  0
  3 12  1  0
  4 13  1  0
  5 14  1  0
  6 15  1  0
  7 16  1  0
  8 17  1  0
 10 18  1  0
M  END
>  <score>  (7) 
-5.943

$$$$
=
     RDKit          3D

 18 18  0  0  0  0  0  0  0  0999 V2000
    3.9620   60.6600   70.1470 C   0  0  0  0  0  0  0  0  0  0  0  0
    3.3540   61.5200   69.2230 C   0  0  0  0  0  0  0  0  0  0  0  0
    3.6420   62.8890   69.2200 C   0  0  0  0  0  0  0  0  0  0  0  0
    4.5420   63.4180   70.1410 C   0  0  0  0  0  0  0  0  0  0  0  0
    5.1550   62.5780   71.0660 C   0  0  0  0  0  0  0  0  0  0  0  0
    4.8660   61.2100   71.0690 C   0  0  0  0  0  0  0  0  0  0  0  0
    3.2060   58.5330   71.2520 C   0  0  0  0  0  0  0  0  0  0  0  0
    3.7050   59.2080   70.2070 C   0  0  0  0  0  0  0  0  0  0  0  0
    3.6920   56.3230   70.4780 O   0  0  0  0  0  0  0  0  0  0  0  0
    3.0020   57.0680   71.1620 C   0  0  0  0  0  0  0  0  0  0  0  0
    2.6411   61.1135   68.4905 H   0  0  0  0  0  0  0  0  0  0  0  0
    3.1556   63.5498   68.4873 H   0  0  0  0  0  0  0  0  0  0  0  0
    4.7675   64.4946   70.1377 H   0  0  0  0  0  0  0  0  0  0  0  0
    5.8675   62.9907   71.7954 H   0  0  0  0  0  0  0  0  0  0  0  0
    5.3546   60.5548   71.8052 H   0  0  0  0  0  0  0  0  0  0  0  0
    2.9475   59.0675   72.1780 H   0  0  0  0  0  0  0  0  0  0  0  0
    3.9463   58.6231   69.3072 H   0  0  0  0  0  0  0  0  0  0  0  0
    2.1817   56.6233   71.7445 H   0  0  0  0  0  0  0  0  0  0  0  0
  2  1  2  0
  3  2  1  0
  4  3  2  0
  5  4  1  0
  6  5  2  0
  6  1  1  0
  8  1  1  0
  8  7  2  0
 10  9  2  0
 10  7  1  0
  2 11  1  0
  3 12  1  0
  4 13  1  0
  5 14  1  0
  6 15  1  0
  7 16  1  0
  8 17  1  0
 10 18  1  0
M  END
>  <score>  (8) 
-5.663

$$$$
=
     RDKit          3D

 18 18  0  0  0  0  0  0  0  0999 V2000
    2.6310   63.4200   71.0910 C   0  0  0  0  0  0  0  0  0  0  0  0
    2.6180   62.4610   72.1120 C   0  0  0  0  0  0  0  0  0  0  0  0
    3.7730   61.7390   72.4320 C   0  0  0  0  0  0  0  0  0  0  0  0
    4.9570   61.9660   71.7350 C   0  0  0  0  0  0  0  0  0  0  0  0
    4.9870   62.9150   70.7180 C   0  0  0  0  0  0  0  0  0  0  0  0
    3.8320   63.6350   70.3980 C   0  0  0  0  0  0  0  0  0  0  0  0
    1.4550   65.4940   70.2920 C   0  0  0  0  0  0  0  0  0  0  0  0
    1.4510   64.2170   70.7010 C   0  0  0  0  0  0  0  0  0  0  0  0
   -0.2010   66.3240   68.7810 O   0  0  0  0  0  0  0  0  0  0  0  0
    0.1830   66.1630   69.9310 C   0  0  0  0  0  0  0  0  0  0  0  0
    1.6883   62.2732   72.6691 H   0  0  0  0  0  0  0  0  0  0  0  0
    3.7457   60.9896   73.2368 H   0  0  0  0  0  0  0  0  0  0  0  0
    5.8644   61.3976   71.9873 H   0  0  0  0  0  0  0  0  0  0  0  0
    5.9201   63.0990   70.1653 H   0  0  0  0  0  0  0  0  0  0  0  0
    3.8653   64.3814   69.5907 H   0  0  0  0  0  0  0  0  0  0  0  0
    2.4041   66.0459   70.2243 H   0  0  0  0  0  0  0  0  0  0  0  0
    0.4738   63.7145   70.7508 H   0  0  0  0  0  0  0  0  0  0  0  0
   -0.4539   66.5372   70.7460 H   0  0  0  0  0  0  0  0  0  0  0  0
  2  1  2  0
  3  2  1  0
  4  3  2  0
  5  4  1  0
  6  5  2  0
  6  1  1  0
  8  1  1  0
  8  7  2  0
 10  9  2  0
 10  7  1  0
  2 11  1  0
  3 12  1  0
  4 13  1  0
  5 14  1  0
  6 15  1  0
  7 16  1  0
  8 17  1  0
 10 18  1  0
M  END
>  <score>  (9) 
-5.487

$$$$
