=
     RDKit          3D

 25 24  0  0  0  0  0  0  0  0999 V2000
    4.5270   67.8460   62.9100 P   0  0  0  0  0  5  0  0  0  0  0  0
    3.7210   67.5410   61.6870 O   0  0  0  0  0  0  0  0  0  0  0  0
    5.9560   68.3850   62.5510 F   0  0  0  0  0  0  0  0  0  0  0  0
    3.9250   68.9710   63.8890 O   0  0  0  0  0  0  0  0  0  0  0  0
    5.3590   69.8900   65.5690 C   0  0  0  0  0  0  0  0  0  0  0  0
    4.2620   68.8790   65.2660 C   0  0  0  0  0  0  0  0  0  0  0  0
    3.0070   69.1670   66.0760 C   0  0  0  0  0  0  0  0  0  0  0  0
    4.8190   66.6040   63.8910 O   0  0  0  0  0  0  0  0  0  0  0  0
    4.0040   65.4520   63.7360 C   0  0  0  0  0  0  0  0  0  0  0  0
    2.8050   65.5730   64.6650 C   0  0  0  0  0  0  0  0  0  0  0  0
    4.8470   64.2320   64.0800 C   0  0  0  0  0  0  0  0  0  0  0  0
    5.4714   69.9936   66.6583 H   0  0  0  0  0  0  0  0  0  0  0  0
    6.3078   69.5430   65.1338 H   0  0  0  0  0  0  0  0  0  0  0  0
    5.0905   70.8639   65.1338 H   0  0  0  0  0  0  0  0  0  0  0  0
    4.6347   67.8771   65.5254 H   0  0  0  0  0  0  0  0  0  0  0  0
    3.2427   69.1129   67.1491 H   0  0  0  0  0  0  0  0  0  0  0  0
    2.6363   70.1736   65.8323 H   0  0  0  0  0  0  0  0  0  0  0  0
    2.2345   68.4228   65.8323 H   0  0  0  0  0  0  0  0  0  0  0  0
    3.6334   65.3543   62.7049 H   0  0  0  0  0  0  0  0  0  0  0  0
    3.1461   65.5386   65.7102 H   0  0  0  0  0  0  0  0  0  0  0  0
    2.2913   66.5276   64.4782 H   0  0  0  0  0  0  0  0  0  0  0  0
    2.1109   64.7403   64.4782 H   0  0  0  0  0  0  0  0  0  0  0  0
    4.9168   64.1310   65.1731 H   0  0  0  0  0  0  0  0  0  0  0  0
    4.3778   63.3312   63.6577 H   0  0  0  0  0  0  0  0  0  0  0  0
    5.8556   64.3523   63.6577 H   0  0  0  0  0  0  0  0  0  0  0  0
  2  1  2  0
  3  1  1  0
  4  1  1  0
  6  4  1  0
  6  5  1  0
  7  6  1  0
  8  1  1  0
  9  8  1  0
 10  9  1  0
 11  9  1  0
  5 12  1  0
  5 13  1  0
  5 14  1  0
  6 15  1  0
  7 16  1  0
  7 17  1  0
  7 18  1  0
  9 19  1  0
 10 20  1  0
 10 21  1  0
 10 22  1  0
 11 23  1  0
 11 24  1  0
 11 25  1  0
M  END
>  <score>  (1) 
-5.297

$$$$
=
     RDKit          3D

 25 24  0  0  0  0  0  0  0  0999 V2000
    1.2870   67.4200   65.5230 P   0  0  0  0  0  5  0  0  0  0  0  0
    0.0700   66.9530   66.2560 O   0  0  0  0  0  0  0  0  0  0  0  0
    2.5150   66.4750   65.7620 F   0  0  0  0  0  0  0  0  0  0  0  0
    1.1620   67.4930   63.9210 O   0  0  0  0  0  0  0  0  0  0  0  0
    2.3130   68.6150   62.1490 C   0  0  0  0  0  0  0  0  0  0  0  0
    1.3450   68.7640   63.3140 C   0  0  0  0  0  0  0  0  0  0  0  0
   -0.0150   69.2580   62.8420 C   0  0  0  0  0  0  0  0  0  0  0  0
    1.8380   68.8780   65.9280 O   0  0  0  0  0  0  0  0  0  0  0  0
    3.0350   68.9280   66.6890 C   0  0  0  0  0  0  0  0  0  0  0  0
    2.7890   69.7690   67.9320 C   0  0  0  0  0  0  0  0  0  0  0  0
    4.1210   69.5400   65.8150 C   0  0  0  0  0  0  0  0  0  0  0  0
    3.3308   68.4583   62.5357 H   0  0  0  0  0  0  0  0  0  0  0  0
    2.0173   67.7518   61.5347 H   0  0  0  0  0  0  0  0  0  0  0  0
    2.2905   69.5272   61.5347 H   0  0  0  0  0  0  0  0  0  0  0  0
    1.7667   69.4932   64.0214 H   0  0  0  0  0  0  0  0  0  0  0  0
   -0.6449   69.4868   63.7142 H   0  0  0  0  0  0  0  0  0  0  0  0
    0.1151   70.1663   62.2353 H   0  0  0  0  0  0  0  0  0  0  0  0
   -0.4981   68.4779   62.2353 H   0  0  0  0  0  0  0  0  0  0  0  0
    3.3533   67.9247   67.0085 H   0  0  0  0  0  0  0  0  0  0  0  0
    2.9677   69.1582   68.8292 H   0  0  0  0  0  0  0  0  0  0  0  0
    3.4727   70.6307   67.9329 H   0  0  0  0  0  0  0  0  0  0  0  0
    1.7487   70.1264   67.9329 H   0  0  0  0  0  0  0  0  0  0  0  0
    4.9012   69.9797   66.4537 H   0  0  0  0  0  0  0  0  0  0  0  0
    4.5642   68.7588   65.1799 H   0  0  0  0  0  0  0  0  0  0  0  0
    3.6823   70.3237   65.1799 H   0  0  0  0  0  0  0  0  0  0  0  0
  2  1  2  0
  3  1  1  0
  4  1  1  0
  6  4  1  0
  6  5  1  0
  7  6  1  0
  8  1  1  0
  9  8  1  0
 10  9  1  0
 11  9  1  0
  5 12  1  0
  5 13  1  0
  5 14  1  0
  6 15  1  0
  7 16  1  0
  7 17  1  0
  7 18  1  0
  9 19  1  0
 10 20  1  0
 10 21  1  0
 10 22  1  0
 11 23  1  0
 11 24  1  0
 11 25  1  0
M  END
>  <score>  (2) 
-5.286

$$$$
=
     RDKit          3D

 25 24  0  0  0  0  0  0  0  0999 V2000
    1.3200   67.2550   65.4700 P   0  0  0  0  0  5  0  0  0  0  0  0
    2.5070   66.3510   65.5700 O   0  0  0  0  0  0  0  0  0  0  0  0
    1.6060   68.6710   66.0820 F   0  0  0  0  0  0  0  0  0  0  0  0
    0.8010   67.5750   63.9820 O   0  0  0  0  0  0  0  0  0  0  0  0
    2.4290   68.5120   62.5010 C   0  0  0  0  0  0  0  0  0  0  0  0
    1.2310   68.7960   63.3940 C   0  0  0  0  0  0  0  0  0  0  0  0
    0.0690   69.3660   62.5950 C   0  0  0  0  0  0  0  0  0  0  0  0
   -0.0070   66.7650   66.2390 O   0  0  0  0  0  0  0  0  0  0  0  0
   -0.4640   67.5670   67.3170 C   0  0  0  0  0  0  0  0  0  0  0  0
    0.2230   67.1090   68.5940 C   0  0  0  0  0  0  0  0  0  0  0  0
   -1.9750   67.4050   67.4140 C   0  0  0  0  0  0  0  0  0  0  0  0
    3.3103   68.3031   63.1252 H   0  0  0  0  0  0  0  0  0  0  0  0
    2.2144   67.6398   61.8660 H   0  0  0  0  0  0  0  0  0  0  0  0
    2.6287   69.3877   61.8660 H   0  0  0  0  0  0  0  0  0  0  0  0
    1.5352   69.5280   64.1567 H   0  0  0  0  0  0  0  0  0  0  0  0
   -0.7002   69.7433   63.2849 H   0  0  0  0  0  0  0  0  0  0  0  0
    0.4290   70.1898   61.9611 H   0  0  0  0  0  0  0  0  0  0  0  0
   -0.3621   68.5771   61.9611 H   0  0  0  0  0  0  0  0  0  0  0  0
   -0.2254   68.6292   67.1599 H   0  0  0  0  0  0  0  0  0  0  0  0
   -0.3360   67.4817   69.4650 H   0  0  0  0  0  0  0  0  0  0  0  0
    0.2528   66.0097   68.6204 H   0  0  0  0  0  0  0  0  0  0  0  0
    1.2492   67.5043   68.6204 H   0  0  0  0  0  0  0  0  0  0  0  0
   -2.2731   67.3730   68.4723 H   0  0  0  0  0  0  0  0  0  0  0  0
   -2.4674   68.2555   66.9199 H   0  0  0  0  0  0  0  0  0  0  0  0
   -2.2759   66.4694   66.9199 H   0  0  0  0  0  0  0  0  0  0  0  0
  2  1  2  0
  3  1  1  0
  4  1  1  0
  6  4  1  0
  6  5  1  0
  7  6  1  0
  8  1  1  0
  9  8  1  0
 10  9  1  0
 11  9  1  0
  5 12  1  0
  5 13  1  0
  5 14  1  0
  6 15  1  0
  7 16  1  0
  7 17  1  0
  7 18  1  0
  9 19  1  0
 10 20  1  0
 10 21  1  0
 10 22  1  0
 11 23  1  0
 11 24  1  0
 11 25  1  0
M  END
>  <score>  (3) 
-5.176

$$$$
=
     RDKit          3D

 25 24  0  0  0  0  0  0  0  0999 V2000
    1.4280   67.2040   65.4030 P   0  0  0  0  0  5  0  0  0  0  0  0
    0.1890   66.8810   66.1770 O   0  0  0  0  0  0  0  0  0  0  0  0
    2.0540   68.5730   65.8420 F   0  0  0  0  0  0  0  0  0  0  0  0
    2.6420   66.1590   65.5490 O   0  0  0  0  0  0  0  0  0  0  0  0
    4.3640   66.2990   63.8940 C   0  0  0  0  0  0  0  0  0  0  0  0
    3.1220   65.5530   64.3570 C   0  0  0  0  0  0  0  0  0  0  0  0
    3.4360   64.0960   64.6650 C   0  0  0  0  0  0  0  0  0  0  0  0
    1.2460   67.3560   63.8110 O   0  0  0  0  0  0  0  0  0  0  0  0
    1.2690   68.6720   63.2800 C   0  0  0  0  0  0  0  0  0  0  0  0
   -0.1510   69.0780   62.9150 C   0  0  0  0  0  0  0  0  0  0  0  0
    2.1740   68.6670   62.0560 C   0  0  0  0  0  0  0  0  0  0  0  0
    4.9340   66.6414   64.7703 H   0  0  0  0  0  0  0  0  0  0  0  0
    4.9906   65.6276   63.2884 H   0  0  0  0  0  0  0  0  0  0  0  0
    4.0656   67.1675   63.2884 H   0  0  0  0  0  0  0  0  0  0  0  0
    2.3737   65.5970   63.5520 H   0  0  0  0  0  0  0  0  0  0  0  0
    3.4674   63.9502   65.7548 H   0  0  0  0  0  0  0  0  0  0  0  0
    2.6558   63.4532   64.2314 H   0  0  0  0  0  0  0  0  0  0  0  0
    4.4117   63.8316   64.2314 H   0  0  0  0  0  0  0  0  0  0  0  0
    1.6566   69.3965   64.0113 H   0  0  0  0  0  0  0  0  0  0  0  0
   -0.7325   69.2443   63.8338 H   0  0  0  0  0  0  0  0  0  0  0  0
   -0.1267   70.0052   62.3236 H   0  0  0  0  0  0  0  0  0  0  0  0
   -0.6205   68.2781   62.3236 H   0  0  0  0  0  0  0  0  0  0  0  0
    3.2259   68.6612   62.3778 H   0  0  0  0  0  0  0  0  0  0  0  0
    1.9701   67.7700   61.4529 H   0  0  0  0  0  0  0  0  0  0  0  0
    1.9800   69.5662   61.4529 H   0  0  0  0  0  0  0  0  0  0  0  0
  2  1  2  0
  3  1  1  0
  4  1  1  0
  6  4  1  0
  6  5  1  0
  7  6  1  0
  8  1  1  0
  9  8  1  0
 10  9  1  0
 11  9  1  0
  5 12  1  0
  5 13  1  0
  5 14  1  0
  6 15  1  0
  7 16  1  0
  7 17  1  0
  7 18  1  0
  9 19  1  0
 10 20  1  0
 10 21  1  0
 10 22  1  0
 11 23  1  0
 11 24  1  0
 11 25  1  0
M  END
>  <score>  (4) 
-5.174

$$$$
=
     RDKit          3D

 25 24  0  0  0  0  0  0  0  0999 V2000
    1.6360   67.5060   65.5820 P   0  0  0  0  0  5  0  0  0  0  0  0
    0.8760   67.4520   64.2940 O   0  0  0  0  0  0  0  0  0  0  0  0
    2.6870   66.3460   65.6910 F   0  0  0  0  0  0  0  0  0  0  0  0
    2.5020   68.8370   65.8340 O   0  0  0  0  0  0  0  0  0  0  0  0
    4.0640   69.1280   64.0460 C   0  0  0  0  0  0  0  0  0  0  0  0
    3.8860   68.7800   65.5160 C   0  0  0  0  0  0  0  0  0  0  0  0
    4.6140   69.7730   66.4110 C   0  0  0  0  0  0  0  0  0  0  0  0
    0.7600   67.3600   66.9240 O   0  0  0  0  0  0  0  0  0  0  0  0
   -0.6400   67.5610   66.8080 C   0  0  0  0  0  0  0  0  0  0  0  0
   -0.9290   69.0520   66.8900 C   0  0  0  0  0  0  0  0  0  0  0  0
   -1.3180   66.8050   67.9420 C   0  0  0  0  0  0  0  0  0  0  0  0
    4.5633   70.1042   63.9582 H   0  0  0  0  0  0  0  0  0  0  0  0
    4.6783   68.3567   63.5584 H   0  0  0  0  0  0  0  0  0  0  0  0
    3.0791   69.1747   63.5584 H   0  0  0  0  0  0  0  0  0  0  0  0
    4.2991   67.7746   65.6848 H   0  0  0  0  0  0  0  0  0  0  0  0
    4.4288   69.5204   67.4655 H   0  0  0  0  0  0  0  0  0  0  0  0
    5.6940   69.7270   66.2071 H   0  0  0  0  0  0  0  0  0  0  0  0
    4.2453   70.7891   66.2071 H   0  0  0  0  0  0  0  0  0  0  0  0
   -1.0232   67.1877   65.8469 H   0  0  0  0  0  0  0  0  0  0  0  0
   -0.9880   69.3565   67.9454 H   0  0  0  0  0  0  0  0  0  0  0  0
   -0.1223   69.6098   66.3920 H   0  0  0  0  0  0  0  0  0  0  0  0
   -1.8857   69.2680   66.3920 H   0  0  0  0  0  0  0  0  0  0  0  0
   -0.9655   67.1981   68.9070 H   0  0  0  0  0  0  0  0  0  0  0  0
   -2.4079   66.9350   67.8692 H   0  0  0  0  0  0  0  0  0  0  0  0
   -1.0706   65.7357   67.8692 H   0  0  0  0  0  0  0  0  0  0  0  0
  2  1  2  0
  3  1  1  0
  4  1  1  0
  6  4  1  0
  6  5  1  0
  7  6  1  0
  8  1  1  0
  9  8  1  0
 10  9  1  0
 11  9  1  0
  5 12  1  0
  5 13  1  0
  5 14  1  0
  6 15  1  0
  7 16  1  0
  7 17  1  0
  7 18  1  0
  9 19  1  0
 10 20  1  0
 10 21  1  0
 10 22  1  0
 11 23  1  0
 11 24  1  0
 11 25  1  0
M  END
>  <score>  (5) 
-5.145

$$$$
=
     RDKit          3D

 25 24  0  0  0  0  0  0  0  0999 V2000
    1.0310   67.4210   65.7150 P   0  0  0  0  0  5  0  0  0  0  0  0
   -0.2350   67.1470   66.4630 O   0  0  0  0  0  0  0  0  0  0  0  0
    0.8750   68.6190   64.7150 F   0  0  0  0  0  0  0  0  0  0  0  0
    2.3040   67.8280   66.6100 O   0  0  0  0  0  0  0  0  0  0  0  0
    2.5760   69.6760   68.1040 C   0  0  0  0  0  0  0  0  0  0  0  0
    2.6480   69.2050   66.6590 C   0  0  0  0  0  0  0  0  0  0  0  0
    4.0540   69.3580   66.0980 C   0  0  0  0  0  0  0  0  0  0  0  0
    1.5800   66.2200   64.7940 O   0  0  0  0  0  0  0  0  0  0  0  0
    2.9870   66.0380   64.7390 C   0  0  0  0  0  0  0  0  0  0  0  0
    3.5230   66.7450   63.5040 C   0  0  0  0  0  0  0  0  0  0  0  0
    3.2640   64.5420   64.6830 C   0  0  0  0  0  0  0  0  0  0  0  0
    2.7075   68.8159   68.7770 H   0  0  0  0  0  0  0  0  0  0  0  0
    3.3721   70.4120   68.2898 H   0  0  0  0  0  0  0  0  0  0  0  0
    1.5964   70.1406   68.2898 H   0  0  0  0  0  0  0  0  0  0  0  0
    1.9549   69.8161   66.0621 H   0  0  0  0  0  0  0  0  0  0  0  0
    4.7730   69.4362   66.9268 H   0  0  0  0  0  0  0  0  0  0  0  0
    4.2999   68.4813   65.4808 H   0  0  0  0  0  0  0  0  0  0  0  0
    4.1056   70.2671   65.4808 H   0  0  0  0  0  0  0  0  0  0  0  0
    3.4851   66.4629   65.6229 H   0  0  0  0  0  0  0  0  0  0  0  0
    4.1611   67.5867   63.8113 H   0  0  0  0  0  0  0  0  0  0  0  0
    4.1135   66.0373   62.9037 H   0  0  0  0  0  0  0  0  0  0  0  0
    2.6821   67.1225   62.9037 H   0  0  0  0  0  0  0  0  0  0  0  0
    3.3377   64.1442   65.7059 H   0  0  0  0  0  0  0  0  0  0  0  0
    2.4441   64.0369   64.1513 H   0  0  0  0  0  0  0  0  0  0  0  0
    4.2104   64.3640   64.1513 H   0  0  0  0  0  0  0  0  0  0  0  0
  2  1  2  0
  3  1  1  0
  4  1  1  0
  6  4  1  0
  6  5  1  0
  7  6  1  0
  8  1  1  0
  9  8  1  0
 10  9  1  0
 11  9  1  0
  5 12  1  0
  5 13  1  0
  5 14  1  0
  6 15  1  0
  7 16  1  0
  7 17  1  0
  7 18  1  0
  9 19  1  0
 10 20  1  0
 10 21  1  0
 10 22  1  0
 11 23  1  0
 11 24  1  0
 11 25  1  0
M  END
>  <score>  (6) 
-5.141

$$$$
=
     RDKit          3D

 25 24  0  0  0  0  0  0  0  0999 V2000
    1.4500   67.7210   65.3790 P   0  0  0  0  0  5  0  0  0  0  0  0
    2.1450   66.4550   65.7690 O   0  0  0  0  0  0  0  0  0  0  0  0
    0.2080   68.0140   66.2910 F   0  0  0  0  0  0  0  0  0  0  0  0
    2.3270   69.0660   65.4760 O   0  0  0  0  0  0  0  0  0  0  0  0
    4.5790   69.4340   64.7580 C   0  0  0  0  0  0  0  0  0  0  0  0
    3.6830   68.9270   65.8780 C   0  0  0  0  0  0  0  0  0  0  0  0
    3.8790   69.7370   67.1520 C   0  0  0  0  0  0  0  0  0  0  0  0
    0.8490   67.7650   63.8860 O   0  0  0  0  0  0  0  0  0  0  0  0
    1.1060   68.9320   63.1190 C   0  0  0  0  0  0  0  0  0  0  0  0
   -0.1900   69.3770   62.4580 C   0  0  0  0  0  0  0  0  0  0  0  0
    2.1650   68.5870   62.0810 C   0  0  0  0  0  0  0  0  0  0  0  0
    5.4595   69.9322   65.1899 H   0  0  0  0  0  0  0  0  0  0  0  0
    4.9050   68.5865   64.1371 H   0  0  0  0  0  0  0  0  0  0  0  0
    4.0204   70.1499   64.1371 H   0  0  0  0  0  0  0  0  0  0  0  0
    3.9409   67.8763   66.0768 H   0  0  0  0  0  0  0  0  0  0  0  0
    3.7221   69.0885   68.0266 H   0  0  0  0  0  0  0  0  0  0  0  0
    4.9012   70.1426   67.1750 H   0  0  0  0  0  0  0  0  0  0  0  0
    3.1553   70.5651   67.1750 H   0  0  0  0  0  0  0  0  0  0  0  0
    1.4739   69.7565   63.7473 H   0  0  0  0  0  0  0  0  0  0  0  0
   -0.9285   69.6306   63.2328 H   0  0  0  0  0  0  0  0  0  0  0  0
    0.0024   70.2605   61.8316 H   0  0  0  0  0  0  0  0  0  0  0  0
   -0.5809   68.5616   61.8316 H   0  0  0  0  0  0  0  0  0  0  0  0
    3.0923   68.2849   62.5897 H   0  0  0  0  0  0  0  0  0  0  0  0
    1.8057   67.7595   61.4517 H   0  0  0  0  0  0  0  0  0  0  0  0
    2.3621   69.4674   61.4517 H   0  0  0  0  0  0  0  0  0  0  0  0
  2  1  2  0
  3  1  1  0
  4  1  1  0
  6  4  1  0
  6  5  1  0
  7  6  1  0
  8  1  1  0
  9  8  1  0
 10  9  1  0
 11  9  1  0
  5 12  1  0
  5 13  1  0
  5 14  1  0
  6 15  1  0
  7 16  1  0
  7 17  1  0
  7 18  1  0
  9 19  1  0
 10 20  1  0
 10 21  1  0
 10 22  1  0
 11 23  1  0
 11 24  1  0
 11 25  1  0
M  END
>  <score>  (7) 
-5.135

$$$$
=
     RDKit          3D

 25 24  0  0  0  0  0  0  0  0999 V2000
    3.6390   62.7080   69.1310 P   0  0  0  0  0  5  0  0  0  0  0  0
    3.5110   63.1730   67.7150 O   0  0  0  0  0  0  0  0  0  0  0  0
    4.6490   63.5870   69.9480 F   0  0  0  0  0  0  0  0  0  0  0  0
    2.2930   62.7480   70.0110 O   0  0  0  0  0  0  0  0  0  0  0  0
    1.1280   64.7590   70.5770 C   0  0  0  0  0  0  0  0  0  0  0  0
    2.1960   63.7620   71.0010 C   0  0  0  0  0  0  0  0  0  0  0  0
    1.8370   63.0950   72.3210 C   0  0  0  0  0  0  0  0  0  0  0  0
    4.1830   61.2070   69.3340 O   0  0  0  0  0  0  0  0  0  0  0  0
    4.0080   60.6230   70.6160 C   0  0  0  0  0  0  0  0  0  0  0  0
    5.3180   60.7250   71.3830 C   0  0  0  0  0  0  0  0  0  0  0  0
    3.5970   59.1710   70.4170 C   0  0  0  0  0  0  0  0  0  0  0  0
    0.6593   65.1965   71.4708 H   0  0  0  0  0  0  0  0  0  0  0  0
    1.5891   65.5572   69.9768 H   0  0  0  0  0  0  0  0  0  0  0  0
    0.3633   64.2441   69.9768 H   0  0  0  0  0  0  0  0  0  0  0  0
    3.1456   64.3045   71.1193 H   0  0  0  0  0  0  0  0  0  0  0  0
    2.1768   63.7264   73.1552 H   0  0  0  0  0  0  0  0  0  0  0  0
    0.7465   62.9639   72.3809 H   0  0  0  0  0  0  0  0  0  0  0  0
    2.3282   62.1126   72.3809 H   0  0  0  0  0  0  0  0  0  0  0  0
    3.2288   61.1417   71.1938 H   0  0  0  0  0  0  0  0  0  0  0  0
    5.1125   60.7090   72.4635 H   0  0  0  0  0  0  0  0  0  0  0  0
    5.9641   59.8744   71.1200 H   0  0  0  0  0  0  0  0  0  0  0  0
    5.8246   61.6653   71.1200 H   0  0  0  0  0  0  0  0  0  0  0  0
    3.4611   58.6908   71.3973 H   0  0  0  0  0  0  0  0  0  0  0  0
    2.6523   59.1311   69.8550 H   0  0  0  0  0  0  0  0  0  0  0  0
    4.3806   58.6418   69.8550 H   0  0  0  0  0  0  0  0  0  0  0  0
  2  1  2  0
  3  1  1  0
  4  1  1  0
  6  4  1  0
  6  5  1  0
  7  6  1  0
  8  1  1  0
  9  8  1  0
 10  9  1  0
 11  9  1  0
  5 12  1  0
  5 13  1  0
  5 14  1  0
  6 15  1  0
  7 16  1  0
  7 17  1  0
  7 18  1  0
  9 19  1  0
 10 20  1  0
 10 21  1  0
 10 22  1  0
 11 23  1  0
 11 24  1  0
 11 25  1  0
M  END
>  <score>  (8) 
-5.078

$$$$
=
     RDKit          3D

 25 24  0  0  0  0  0  0  0  0999 V2000
    0.5870   68.1660   65.9060 P   0  0  0  0  0  5  0  0  0  0  0  0
   -0.1310   68.3390   64.6060 O   0  0  0  0  0  0  0  0  0  0  0  0
    0.4230   69.4170   66.8380 F   0  0  0  0  0  0  0  0  0  0  0  0
    0.1020   66.9360   66.8220 O   0  0  0  0  0  0  0  0  0  0  0  0
   -2.1970   66.8870   67.4820 C   0  0  0  0  0  0  0  0  0  0  0  0
   -0.7760   67.2360   67.8980 C   0  0  0  0  0  0  0  0  0  0  0  0
   -0.3360   66.4180   69.1030 C   0  0  0  0  0  0  0  0  0  0  0  0
    2.1820   67.9640   65.8100 O   0  0  0  0  0  0  0  0  0  0  0  0
    2.9500   69.0790   65.3850 C   0  0  0  0  0  0  0  0  0  0  0  0
    3.7080   68.6970   64.1220 C   0  0  0  0  0  0  0  0  0  0  0  0
    3.9060   69.4470   66.5110 C   0  0  0  0  0  0  0  0  0  0  0  0
   -2.8149   66.7352   68.3793 H   0  0  0  0  0  0  0  0  0  0  0  0
   -2.6160   67.7089   66.8829 H   0  0  0  0  0  0  0  0  0  0  0  0
   -2.1876   65.9645   66.8829 H   0  0  0  0  0  0  0  0  0  0  0  0
   -0.7466   68.3042   68.1587 H   0  0  0  0  0  0  0  0  0  0  0  0
   -0.6191   66.9442   70.0265 H   0  0  0  0  0  0  0  0  0  0  0  0
   -0.8264   65.4337   69.0768 H   0  0  0  0  0  0  0  0  0  0  0  0
    0.7556   66.2846   69.0768 H   0  0  0  0  0  0  0  0  0  0  0  0
    2.3123   69.9458   65.1569 H   0  0  0  0  0  0  0  0  0  0  0  0
    4.6593   68.2176   64.3962 H   0  0  0  0  0  0  0  0  0  0  0  0
    3.1021   67.9966   63.5284 H   0  0  0  0  0  0  0  0  0  0  0  0
    3.9105   69.6007   63.5284 H   0  0  0  0  0  0  0  0  0  0  0  0
    3.4203   69.2601   67.4801 H   0  0  0  0  0  0  0  0  0  0  0  0
    4.8169   68.8352   66.4333 H   0  0  0  0  0  0  0  0  0  0  0  0
    4.1716   70.5116   66.4333 H   0  0  0  0  0  0  0  0  0  0  0  0
  2  1  2  0
  3  1  1  0
  4  1  1  0
  6  4  1  0
  6  5  1  0
  7  6  1  0
  8  1  1  0
  9  8  1  0
 10  9  1  0
 11  9  1  0
  5 12  1  0
  5 13  1  0
  5 14  1  0
  6 15  1  0
  7 16  1  0
  7 17  1  0
  7 18  1  0
  9 19  1  0
 10 20  1  0
 10 21  1  0
 10 22  1  0
 11 23  1  0
 11 24  1  0
 11 25  1  0
M  END
>  <score>  (9) 
-5.067

$$$$
