=
     RDKit          3D

 65 69  0  0  0  0  0  0  0  0999 V2000
    0.9320   62.4530   72.4220 C   0  0  0  0  0  0  0  0  0  0  0  0
    1.1720   62.8190   71.0940 C   0  0  0  0  0  0  0  0  0  0  0  0
    0.8310   64.1040   70.6550 C   0  0  0  0  0  0  0  0  0  0  0  0
    0.2610   65.0320   71.5300 C   0  0  0  0  0  0  0  0  0  0  0  0
    0.0250   64.6670   72.8560 C   0  0  0  0  0  0  0  0  0  0  0  0
    0.3650   63.3850   73.3000 C   0  0  0  0  0  0  0  0  0  0  0  0
    0.5420   60.1600   72.7650 O   0  0  0  0  0  0  0  0  0  0  0  0
    1.2930   61.1100   72.9520 C   0  0  0  0  0  0  0  0  0  0  0  0
    2.5020   61.0160   73.6120 N   0  0  0  0  0  0  0  0  0  0  0  0
    3.0140   59.7180   74.0290 C   0  0  0  0  0  0  0  0  0  0  0  0
    4.1580   59.2480   73.1310 C   0  0  0  0  0  0  0  0  0  0  0  0
    3.9350   59.5820   71.6920 C   0  0  0  0  0  0  0  0  0  0  0  0
    3.4490   58.7310   70.7190 C   0  0  0  0  0  0  0  0  0  0  0  0
    3.3920   59.4190   69.5360 N   0  0  0  0  0  0  0  0  0  0  0  0
    3.8320   60.7090   69.7140 C   0  0  0  0  0  0  0  0  0  0  0  0
    4.1810   60.8420   71.0580 C   0  0  0  0  0  0  0  0  0  0  0  0
    4.6710   62.0870   71.5050 C   0  0  0  0  0  0  0  0  0  0  0  0
    4.7940   63.1460   70.5970 C   0  0  0  0  0  0  0  0  0  0  0  0
    4.4360   62.9800   69.2610 C   0  0  0  0  0  0  0  0  0  0  0  0
    3.9480   61.7580   68.7930 C   0  0  0  0  0  0  0  0  0  0  0  0
   -0.0090   66.2520   70.9730 O   0  0  0  0  0  0  0  0  0  0  0  0
    0.0250   66.3340   69.5500 C   0  0  0  0  0  0  0  0  0  0  0  0
    1.1220   67.3260   69.1570 C   0  0  0  0  0  0  0  0  0  0  0  0
    0.9460   67.8400   67.7240 C   0  0  0  0  0  0  0  0  0  0  0  0
    1.3700   69.2950   67.5340 C   0  0  0  0  0  0  0  0  0  0  0  0
    2.7120   69.3860   66.8950 N   0  0  0  0  0  4  0  0  0  0  0  0
    2.7850   69.0240   65.5870 C   0  0  0  0  0  0  0  0  0  0  0  0
    3.9690   69.0830   64.8740 C   0  0  0  0  0  0  0  0  0  0  0  0
    5.1120   69.5320   65.5070 C   0  0  0  0  0  0  0  0  0  0  0  0
    5.0570   69.9160   66.8450 C   0  0  0  0  0  0  0  0  0  0  0  0
    3.8250   69.8430   67.5580 C   0  0  0  0  0  0  0  0  0  0  0  0
    3.8250   70.2400   68.9080 C   0  0  0  0  0  0  0  0  0  0  0  0
    4.9920   70.6930   69.5330 C   0  0  0  0  0  0  0  0  0  0  0  0
    6.1830   70.7610   68.8240 C   0  0  0  0  0  0  0  0  0  0  0  0
    6.2170   70.3740   67.4870 C   0  0  0  0  0  0  0  0  0  0  0  0
    1.6270   62.1000   70.3968 H   0  0  0  0  0  0  0  0  0  0  0  0
    1.0142   64.3865   69.6078 H   0  0  0  0  0  0  0  0  0  0  0  0
   -0.4286   65.3877   73.5523 H   0  0  0  0  0  0  0  0  0  0  0  0
    0.1853   63.1062   74.3488 H   0  0  0  0  0  0  0  0  0  0  0  0
    3.0448   61.8686   73.8105 H   0  0  0  0  0  0  0  0  0  0  0  0
    3.3807   59.7947   75.0632 H   0  0  0  0  0  0  0  0  0  0  0  0
    2.1961   58.9862   73.9547 H   0  0  0  0  0  0  0  0  0  0  0  0
    5.0884   59.7309   73.4644 H   0  0  0  0  0  0  0  0  0  0  0  0
    4.2166   58.1526   73.2129 H   0  0  0  0  0  0  0  0  0  0  0  0
    3.1577   57.6809   70.8684 H   0  0  0  0  0  0  0  0  0  0  0  0
    3.0662   59.0261   68.6414 H   0  0  0  0  0  0  0  0  0  0  0  0
    4.9544   62.2250   72.5589 H   0  0  0  0  0  0  0  0  0  0  0  0
    5.1768   64.1179   70.9419 H   0  0  0  0  0  0  0  0  0  0  0  0
    4.5393   63.8246   68.5638 H   0  0  0  0  0  0  0  0  0  0  0  0
    3.6648   61.6240   67.7386 H   0  0  0  0  0  0  0  0  0  0  0  0
    0.2475   65.3442   69.1247 H   0  0  0  0  0  0  0  0  0  0  0  0
   -0.9488   66.6702   69.1643 H   0  0  0  0  0  0  0  0  0  0  0  0
    1.0907   68.1818   69.8474 H   0  0  0  0  0  0  0  0  0  0  0  0
    2.0883   66.8035   69.2138 H   0  0  0  0  0  0  0  0  0  0  0  0
    1.5513   67.2121   67.0537 H   0  0  0  0  0  0  0  0  0  0  0  0
   -0.1285   67.7871   67.4946 H   0  0  0  0  0  0  0  0  0  0  0  0
    0.6330   69.8029   66.8946 H   0  0  0  0  0  0  0  0  0  0  0  0
    1.4218   69.7746   68.5226 H   0  0  0  0  0  0  0  0  0  0  0  0
    1.8743   68.6732   65.0795 H   0  0  0  0  0  0  0  0  0  0  0  0
    4.0000   68.7767   63.8179 H   0  0  0  0  0  0  0  0  0  0  0  0
    6.0626   69.5861   64.9562 H   0  0  0  0  0  0  0  0  0  0  0  0
    2.8887   70.1933   69.4835 H   0  0  0  0  0  0  0  0  0  0  0  0
    4.9653   70.9963   70.5900 H   0  0  0  0  0  0  0  0  0  0  0  0
    7.0983   71.1199   69.3173 H   0  0  0  0  0  0  0  0  0  0  0  0
    7.1631   70.4280   66.9285 H   0  0  0  0  0  0  0  0  0  0  0  0
  2  1  2  0
  3  2  1  0
  4  3  2  0
  5  4  1  0
  6  5  2  0
  6  1  1  0
  8  7  2  0
  8  1  1  0
  9  8  1  0
 10  9  1  0
 11 10  1  0
 12 11  1  0
 13 12  2  0
 14 13  1  0
 15 14  1  0
 16 12  1  0
 16 15  2  0
 17 16  1  0
 18 17  2  0
 19 18  1  0
 20 19  2  0
 20 15  1  0
 21  4  1  0
 22 21  1  0
 23 22  1  0
 24 23  1  0
 25 24  1  0
 26 25  1  0
 27 26  2  0
 28 27  1  0
 29 28  2  0
 30 29  1  0
 31 30  2  0
 31 26  1  0
 32 31  1  0
 33 32  2  0
 34 33  1  0
 35 30  1  0
 35 34  2  0
  2 36  1  0
  3 37  1  0
  5 38  1  0
  6 39  1  0
  9 40  1  0
 10 41  1  0
 10 42  1  0
 11 43  1  0
 11 44  1  0
 13 45  1  0
 14 46  1  0
 17 47  1  0
 18 48  1  0
 19 49  1  0
 20 50  1  0
 22 51  1  0
 22 52  1  0
 23 53  1  0
 23 54  1  0
 24 55  1  0
 24 56  1  0
 25 57  1  0
 25 58  1  0
 27 59  1  0
 28 60  1  0
 29 61  1  0
 32 62  1  0
 33 63  1  0
 34 64  1  0
 35 65  1  0
M  CHG  1  26   1
M  END
>  <score>  (1) 
-11.951

$$$$
=
     RDKit          3D

 65 69  0  0  0  0  0  0  0  0999 V2000
    0.0710   65.5080   70.2750 C   0  0  0  0  0  0  0  0  0  0  0  0
   -0.1620   66.0390   71.5480 C   0  0  0  0  0  0  0  0  0  0  0  0
    0.0050   65.2320   72.6790 C   0  0  0  0  0  0  0  0  0  0  0  0
    0.4130   63.9010   72.5550 C   0  0  0  0  0  0  0  0  0  0  0  0
    0.6480   63.3730   71.2850 C   0  0  0  0  0  0  0  0  0  0  0  0
    0.4840   64.1760   70.1510 C   0  0  0  0  0  0  0  0  0  0  0  0
   -1.1490   66.3710   68.4600 O   0  0  0  0  0  0  0  0  0  0  0  0
   -0.0690   66.3240   69.0380 C   0  0  0  0  0  0  0  0  0  0  0  0
    1.0530   67.0170   68.6300 N   0  0  0  0  0  0  0  0  0  0  0  0
    0.9730   67.9610   67.5250 C   0  0  0  0  0  0  0  0  0  0  0  0
    1.6790   69.2760   67.8530 C   0  0  0  0  0  0  0  0  0  0  0  0
    2.9900   69.4150   67.1500 C   0  0  0  0  0  0  0  0  0  0  0  0
    3.2600   69.0660   65.8410 C   0  0  0  0  0  0  0  0  0  0  0  0
    4.5740   69.3530   65.5820 N   0  0  0  0  0  0  0  0  0  0  0  0
    5.1740   69.8860   66.6980 C   0  0  0  0  0  0  0  0  0  0  0  0
    4.2050   69.9380   67.7000 C   0  0  0  0  0  0  0  0  0  0  0  0
    4.5710   70.4490   68.9630 C   0  0  0  0  0  0  0  0  0  0  0  0
    5.8830   70.8870   69.1750 C   0  0  0  0  0  0  0  0  0  0  0  0
    6.8270   70.8230   68.1530 C   0  0  0  0  0  0  0  0  0  0  0  0
    6.4910   70.3200   66.8940 C   0  0  0  0  0  0  0  0  0  0  0  0
    0.5510   63.2320   73.7400 O   0  0  0  0  0  0  0  0  0  0  0  0
    1.8140   62.6200   73.9940 C   0  0  0  0  0  0  0  0  0  0  0  0
    1.6230   61.1020   73.9540 C   0  0  0  0  0  0  0  0  0  0  0  0
    2.8740   60.3530   74.4260 C   0  0  0  0  0  0  0  0  0  0  0  0
    4.1210   60.6500   73.5940 C   0  0  0  0  0  0  0  0  0  0  0  0
    3.9060   60.3080   72.1610 N   0  0  0  0  0  4  0  0  0  0  0  0
    3.6300   59.0060   71.8840 C   0  0  0  0  0  0  0  0  0  0  0  0
    3.3900   58.5650   70.5960 C   0  0  0  0  0  0  0  0  0  0  0  0
    3.4210   59.4760   69.5570 C   0  0  0  0  0  0  0  0  0  0  0  0
    3.6930   60.8170   69.8210 C   0  0  0  0  0  0  0  0  0  0  0  0
    3.9400   61.2450   71.1570 C   0  0  0  0  0  0  0  0  0  0  0  0
    4.2130   62.6100   71.3680 C   0  0  0  0  0  0  0  0  0  0  0  0
    4.2400   63.5190   70.3050 C   0  0  0  0  0  0  0  0  0  0  0  0
    3.9940   63.0860   69.0090 C   0  0  0  0  0  0  0  0  0  0  0  0
    3.7230   61.7420   68.7670 C   0  0  0  0  0  0  0  0  0  0  0  0
   -0.4755   67.0875   71.6596 H   0  0  0  0  0  0  0  0  0  0  0  0
   -0.1872   65.6504   73.6780 H   0  0  0  0  0  0  0  0  0  0  0  0
    0.9624   62.3246   71.1752 H   0  0  0  0  0  0  0  0  0  0  0  0
    0.6813   63.7571   69.1532 H   0  0  0  0  0  0  0  0  0  0  0  0
    1.9516   66.8653   69.1101 H   0  0  0  0  0  0  0  0  0  0  0  0
    1.4466   67.5135   66.6388 H   0  0  0  0  0  0  0  0  0  0  0  0
   -0.0885   68.1793   67.3366 H   0  0  0  0  0  0  0  0  0  0  0  0
    1.0278   70.1100   67.5524 H   0  0  0  0  0  0  0  0  0  0  0  0
    1.8782   69.2865   68.9348 H   0  0  0  0  0  0  0  0  0  0  0  0
    2.5428   68.6320   65.1288 H   0  0  0  0  0  0  0  0  0  0  0  0
    5.0451   69.1924   64.6802 H   0  0  0  0  0  0  0  0  0  0  0  0
    3.8307   70.5027   69.7749 H   0  0  0  0  0  0  0  0  0  0  0  0
    6.1717   71.2858   70.1587 H   0  0  0  0  0  0  0  0  0  0  0  0
    7.8526   71.1739   68.3401 H   0  0  0  0  0  0  0  0  0  0  0  0
    7.2345   70.2667   66.0851 H   0  0  0  0  0  0  0  0  0  0  0  0
    2.5379   62.9252   73.2240 H   0  0  0  0  0  0  0  0  0  0  0  0
    2.1971   62.9303   74.9773 H   0  0  0  0  0  0  0  0  0  0  0  0
    0.7802   60.8328   74.6076 H   0  0  0  0  0  0  0  0  0  0  0  0
    1.4266   60.8118   72.9113 H   0  0  0  0  0  0  0  0  0  0  0  0
    3.0766   60.6387   75.4687 H   0  0  0  0  0  0  0  0  0  0  0  0
    2.6645   59.2786   74.3171 H   0  0  0  0  0  0  0  0  0  0  0  0
    4.3601   61.7206   73.6754 H   0  0  0  0  0  0  0  0  0  0  0  0
    4.9500   60.0372   73.9778 H   0  0  0  0  0  0  0  0  0  0  0  0
    3.5966   58.2808   72.7105 H   0  0  0  0  0  0  0  0  0  0  0  0
    3.1773   57.5036   70.4007 H   0  0  0  0  0  0  0  0  0  0  0  0
    3.2317   59.1437   68.5256 H   0  0  0  0  0  0  0  0  0  0  0  0
    4.4090   62.9689   72.3892 H   0  0  0  0  0  0  0  0  0  0  0  0
    4.4568   64.5803   70.4966 H   0  0  0  0  0  0  0  0  0  0  0  0
    4.0132   63.8033   68.1752 H   0  0  0  0  0  0  0  0  0  0  0  0
    3.5304   61.4021   67.7387 H   0  0  0  0  0  0  0  0  0  0  0  0
  2  1  2  0
  3  2  1  0
  4  3  2  0
  5  4  1  0
  6  5  2  0
  6  1  1  0
  8  7  2  0
  8  1  1  0
  9  8  1  0
 10  9  1  0
 11 10  1  0
 12 11  1  0
 13 12  2  0
 14 13  1  0
 15 14  1  0
 16 12  1  0
 16 15  2  0
 17 16  1  0
 18 17  2  0
 19 18  1  0
 20 19  2  0
 20 15  1  0
 21  4  1  0
 22 21  1  0
 23 22  1  0
 24 23  1  0
 25 24  1  0
 26 25  1  0
 27 26  2  0
 28 27  1  0
 29 28  2  0
 30 29  1  0
 31 30  2  0
 31 26  1  0
 32 31  1  0
 33 32  2  0
 34 33  1  0
 35 30  1  0
 35 34  2  0
  2 36  1  0
  3 37  1  0
  5 38  1  0
  6 39  1  0
  9 40  1  0
 10 41  1  0
 10 42  1  0
 11 43  1  0
 11 44  1  0
 13 45  1  0
 14 46  1  0
 17 47  1  0
 18 48  1  0
 19 49  1  0
 20 50  1  0
 22 51  1  0
 22 52  1  0
 23 53  1  0
 23 54  1  0
 24 55  1  0
 24 56  1  0
 25 57  1  0
 25 58  1  0
 27 59  1  0
 28 60  1  0
 29 61  1  0
 32 62  1  0
 33 63  1  0
 34 64  1  0
 35 65  1  0
M  CHG  1  26   1
M  END
>  <score>  (2) 
-11.765

$$$$
=
     RDKit          3D

 65 69  0  0  0  0  0  0  0  0999 V2000
   -0.2770   66.4600   68.9250 C   0  0  0  0  0  0  0  0  0  0  0  0
   -1.5720   66.4080   68.4000 C   0  0  0  0  0  0  0  0  0  0  0  0
   -1.8740   67.1050   67.2250 C   0  0  0  0  0  0  0  0  0  0  0  0
   -0.8940   67.8480   66.5600 C   0  0  0  0  0  0  0  0  0  0  0  0
    0.3980   67.8960   67.0830 C   0  0  0  0  0  0  0  0  0  0  0  0
    0.7070   67.2000   68.2560 C   0  0  0  0  0  0  0  0  0  0  0  0
   -0.0780   66.2320   71.2560 O   0  0  0  0  0  0  0  0  0  0  0  0
    0.1100   65.7220   70.1580 C   0  0  0  0  0  0  0  0  0  0  0  0
    0.6430   64.4610   69.9760 N   0  0  0  0  0  0  0  0  0  0  0  0
    0.9070   63.6020   71.1220 C   0  0  0  0  0  0  0  0  0  0  0  0
    2.4050   63.4620   71.3890 C   0  0  0  0  0  0  0  0  0  0  0  0
    2.9700   62.1900   70.8450 C   0  0  0  0  0  0  0  0  0  0  0  0
    3.8310   62.0690   69.7720 C   0  0  0  0  0  0  0  0  0  0  0  0
    4.1140   60.7410   69.5960 N   0  0  0  0  0  0  0  0  0  0  0  0
    3.4540   59.9850   70.5350 C   0  0  0  0  0  0  0  0  0  0  0  0
    2.7270   60.8670   71.3340 C   0  0  0  0  0  0  0  0  0  0  0  0
    1.9510   60.3360   72.3850 C   0  0  0  0  0  0  0  0  0  0  0  0
    1.9310   58.9520   72.5970 C   0  0  0  0  0  0  0  0  0  0  0  0
    2.6700   58.0990   71.7810 C   0  0  0  0  0  0  0  0  0  0  0  0
    3.4460   58.5990   70.7330 C   0  0  0  0  0  0  0  0  0  0  0  0
   -1.3230   68.4670   65.4180 O   0  0  0  0  0  0  0  0  0  0  0  0
   -0.3700   69.2680   64.7210 C   0  0  0  0  0  0  0  0  0  0  0  0
   -0.4690   68.9330   63.2300 C   0  0  0  0  0  0  0  0  0  0  0  0
    0.8690   68.4500   62.6610 C   0  0  0  0  0  0  0  0  0  0  0  0
    1.7850   67.8030   63.6980 C   0  0  0  0  0  0  0  0  0  0  0  0
    3.1530   68.3890   63.6480 N   0  0  0  0  0  4  0  0  0  0  0  0
    3.7670   68.3900   62.4360 C   0  0  0  0  0  0  0  0  0  0  0  0
    5.0290   68.9240   62.2530 C   0  0  0  0  0  0  0  0  0  0  0  0
    5.6860   69.4830   63.3340 C   0  0  0  0  0  0  0  0  0  0  0  0
    5.0700   69.5000   64.5840 C   0  0  0  0  0  0  0  0  0  0  0  0
    3.7690   68.9410   64.7460 C   0  0  0  0  0  0  0  0  0  0  0  0
    3.1940   68.9810   66.0290 C   0  0  0  0  0  0  0  0  0  0  0  0
    3.8720   69.5520   67.1120 C   0  0  0  0  0  0  0  0  0  0  0  0
    5.1370   70.0950   66.9370 C   0  0  0  0  0  0  0  0  0  0  0  0
    5.7340   70.0690   65.6790 C   0  0  0  0  0  0  0  0  0  0  0  0
   -2.3507   65.8211   68.9091 H   0  0  0  0  0  0  0  0  0  0  0  0
   -2.8957   67.0679   66.8192 H   0  0  0  0  0  0  0  0  0  0  0  0
    1.1756   68.4825   66.5718 H   0  0  0  0  0  0  0  0  0  0  0  0
    1.7309   67.2338   68.6567 H   0  0  0  0  0  0  0  0  0  0  0  0
    0.8548   64.1265   69.0252 H   0  0  0  0  0  0  0  0  0  0  0  0
    0.4252   64.0352   72.0109 H   0  0  0  0  0  0  0  0  0  0  0  0
    0.5026   62.6029   70.9025 H   0  0  0  0  0  0  0  0  0  0  0  0
    2.9271   64.3086   70.9192 H   0  0  0  0  0  0  0  0  0  0  0  0
    2.5491   63.4507   72.4795 H   0  0  0  0  0  0  0  0  0  0  0  0
    4.2223   62.8974   69.1632 H   0  0  0  0  0  0  0  0  0  0  0  0
    4.7329   60.3628   68.8647 H   0  0  0  0  0  0  0  0  0  0  0  0
    1.3656   61.0043   73.0336 H   0  0  0  0  0  0  0  0  0  0  0  0
    1.3261   58.5347   73.4155 H   0  0  0  0  0  0  0  0  0  0  0  0
    2.6421   57.0148   71.9647 H   0  0  0  0  0  0  0  0  0  0  0  0
    4.0301   57.9278   70.0862 H   0  0  0  0  0  0  0  0  0  0  0  0
   -0.5913   70.3338   64.8795 H   0  0  0  0  0  0  0  0  0  0  0  0
    0.6451   69.0628   65.0918 H   0  0  0  0  0  0  0  0  0  0  0  0
   -1.2200   68.1410   63.0929 H   0  0  0  0  0  0  0  0  0  0  0  0
   -0.7556   69.8497   62.6938 H   0  0  0  0  0  0  0  0  0  0  0  0
    0.6635   67.7118   61.8718 H   0  0  0  0  0  0  0  0  0  0  0  0
    1.3941   69.3389   62.2814 H   0  0  0  0  0  0  0  0  0  0  0  0
    1.3621   67.9640   64.7006 H   0  0  0  0  0  0  0  0  0  0  0  0
    1.8581   66.7281   63.4760 H   0  0  0  0  0  0  0  0  0  0  0  0
    3.2436   67.9522   61.5733 H   0  0  0  0  0  0  0  0  0  0  0  0
    5.5041   68.9045   61.2611 H   0  0  0  0  0  0  0  0  0  0  0  0
    6.6908   69.9125   63.2077 H   0  0  0  0  0  0  0  0  0  0  0  0
    2.1917   68.5551   66.1842 H   0  0  0  0  0  0  0  0  0  0  0  0
    3.4004   69.5704   68.1056 H   0  0  0  0  0  0  0  0  0  0  0  0
    5.6668   70.5448   67.7896 H   0  0  0  0  0  0  0  0  0  0  0  0
    6.7371   70.4996   65.5435 H   0  0  0  0  0  0  0  0  0  0  0  0
  2  1  2  0
  3  2  1  0
  4  3  2  0
  5  4  1  0
  6  5  2  0
  6  1  1  0
  8  7  2  0
  8  1  1  0
  9  8  1  0
 10  9  1  0
 11 10  1  0
 12 11  1  0
 13 12  2  0
 14 13  1  0
 15 14  1  0
 16 12  1  0
 16 15  2  0
 17 16  1  0
 18 17  2  0
 19 18  1  0
 20 19  2  0
 20 15  1  0
 21  4  1  0
 22 21  1  0
 23 22  1  0
 24 23  1  0
 25 24  1  0
 26 25  1  0
 27 26  2  0
 28 27  1  0
 29 28  2  0
 30 29  1  0
 31 30  2  0
 31 26  1  0
 32 31  1  0
 33 32  2  0
 34 33  1  0
 35 30  1  0
 35 34  2  0
  2 36  1  0
  3 37  1  0
  5 38  1  0
  6 39  1  0
  9 40  1  0
 10 41  1  0
 10 42  1  0
 11 43  1  0
 11 44  1  0
 13 45  1  0
 14 46  1  0
 17 47  1  0
 18 48  1  0
 19 49  1  0
 20 50  1  0
 22 51  1  0
 22 52  1  0
 23 53  1  0
 23 54  1  0
 24 55  1  0
 24 56  1  0
 25 57  1  0
 25 58  1  0
 27 59  1  0
 28 60  1  0
 29 61  1  0
 32 62  1  0
 33 63  1  0
 34 64  1  0
 35 65  1  0
M  CHG  1  26   1
M  END
>  <score>  (3) 
-11.406

$$$$
=
     RDKit          3D

 65 69  0  0  0  0  0  0  0  0999 V2000
    2.3160   63.0280   71.7240 C   0  0  0  0  0  0  0  0  0  0  0  0
    2.8900   63.8300   70.7320 C   0  0  0  0  0  0  0  0  0  0  0  0
    2.1890   64.9380   70.2430 C   0  0  0  0  0  0  0  0  0  0  0  0
    0.9240   65.2620   70.7400 C   0  0  0  0  0  0  0  0  0  0  0  0
    0.3530   64.4630   71.7320 C   0  0  0  0  0  0  0  0  0  0  0  0
    1.0500   63.3550   72.2250 C   0  0  0  0  0  0  0  0  0  0  0  0
    3.3830   61.8700   73.4700 O   0  0  0  0  0  0  0  0  0  0  0  0
    3.0220   61.8500   72.2980 C   0  0  0  0  0  0  0  0  0  0  0  0
    3.2010   60.7710   71.4560 N   0  0  0  0  0  0  0  0  0  0  0  0
    3.7390   59.5190   71.9680 C   0  0  0  0  0  0  0  0  0  0  0  0
    2.8430   58.3330   71.6160 C   0  0  0  0  0  0  0  0  0  0  0  0
    1.9500   57.9310   72.7440 C   0  0  0  0  0  0  0  0  0  0  0  0
    2.0470   56.7750   73.4950 C   0  0  0  0  0  0  0  0  0  0  0  0
    1.0460   56.7850   74.4290 N   0  0  0  0  0  0  0  0  0  0  0  0
    0.2910   57.9270   74.3080 C   0  0  0  0  0  0  0  0  0  0  0  0
    0.8340   58.6680   73.2580 C   0  0  0  0  0  0  0  0  0  0  0  0
    0.2330   59.8990   72.9230 C   0  0  0  0  0  0  0  0  0  0  0  0
   -0.8810   60.3420   73.6470 C   0  0  0  0  0  0  0  0  0  0  0  0
   -1.3980   59.5780   74.6910 C   0  0  0  0  0  0  0  0  0  0  0  0
   -0.8220   58.3550   75.0420 C   0  0  0  0  0  0  0  0  0  0  0  0
    0.3590   66.3770   70.1840 O   0  0  0  0  0  0  0  0  0  0  0  0
    1.1040   67.0370   69.1620 C   0  0  0  0  0  0  0  0  0  0  0  0
    0.1410   67.3910   68.0260 C   0  0  0  0  0  0  0  0  0  0  0  0
    0.7030   68.4890   67.1170 C   0  0  0  0  0  0  0  0  0  0  0  0
    1.7430   69.3790   67.7950 C   0  0  0  0  0  0  0  0  0  0  0  0
    2.9970   69.4470   66.9940 N   0  0  0  0  0  4  0  0  0  0  0  0
    2.9060   69.0610   65.6950 C   0  0  0  0  0  0  0  0  0  0  0  0
    3.9940   69.0980   64.8410 C   0  0  0  0  0  0  0  0  0  0  0  0
    5.2090   69.5480   65.3200 C   0  0  0  0  0  0  0  0  0  0  0  0
    5.3210   69.9560   66.6480 C   0  0  0  0  0  0  0  0  0  0  0  0
    4.1860   69.9070   67.5070 C   0  0  0  0  0  0  0  0  0  0  0  0
    4.3540   70.3280   68.8400 C   0  0  0  0  0  0  0  0  0  0  0  0
    5.5910   70.7830   69.3080 C   0  0  0  0  0  0  0  0  0  0  0  0
    6.6870   70.8280   68.4560 C   0  0  0  0  0  0  0  0  0  0  0  0
    6.5540   70.4160   67.1330 C   0  0  0  0  0  0  0  0  0  0  0  0
    3.8886   63.5906   70.3378 H   0  0  0  0  0  0  0  0  0  0  0  0
    2.6397   65.5620   69.4572 H   0  0  0  0  0  0  0  0  0  0  0  0
   -0.6451   64.7047   72.1260 H   0  0  0  0  0  0  0  0  0  0  0  0
    0.5993   62.7347   73.0137 H   0  0  0  0  0  0  0  0  0  0  0  0
    2.9525   60.8522   70.4597 H   0  0  0  0  0  0  0  0  0  0  0  0
    4.7355   59.3546   71.5323 H   0  0  0  0  0  0  0  0  0  0  0  0
    3.7953   59.5928   73.0641 H   0  0  0  0  0  0  0  0  0  0  0  0
    2.2184   58.6076   70.7532 H   0  0  0  0  0  0  0  0  0  0  0  0
    3.4970   57.4782   71.3888 H   0  0  0  0  0  0  0  0  0  0  0  0
    2.7991   55.9830   73.3648 H   0  0  0  0  0  0  0  0  0  0  0  0
    0.8821   56.0423   75.1236 H   0  0  0  0  0  0  0  0  0  0  0  0
    0.6361   60.5066   72.0994 H   0  0  0  0  0  0  0  0  0  0  0  0
   -1.3521   61.3020   73.3890 H   0  0  0  0  0  0  0  0  0  0  0  0
   -2.2735   59.9437   75.2475 H   0  0  0  0  0  0  0  0  0  0  0  0
   -1.2282   57.7496   75.8657 H   0  0  0  0  0  0  0  0  0  0  0  0
    1.5586   67.9540   69.5650 H   0  0  0  0  0  0  0  0  0  0  0  0
    1.9065   66.3821   68.7916 H   0  0  0  0  0  0  0  0  0  0  0  0
   -0.0425   66.4899   67.4224 H   0  0  0  0  0  0  0  0  0  0  0  0
   -0.7904   67.7661   68.4752 H   0  0  0  0  0  0  0  0  0  0  0  0
    1.1720   68.0105   66.2446 H   0  0  0  0  0  0  0  0  0  0  0  0
   -0.1409   69.1375   66.8389 H   0  0  0  0  0  0  0  0  0  0  0  0
    1.3313   70.3932   67.9040 H   0  0  0  0  0  0  0  0  0  0  0  0
    1.9809   68.9496   68.7794 H   0  0  0  0  0  0  0  0  0  0  0  0
    1.9378   68.7082   65.3101 H   0  0  0  0  0  0  0  0  0  0  0  0
    3.8928   68.7735   63.7948 H   0  0  0  0  0  0  0  0  0  0  0  0
    6.0850   69.5842   64.6557 H   0  0  0  0  0  0  0  0  0  0  0  0
    3.4954   70.2985   69.5270 H   0  0  0  0  0  0  0  0  0  0  0  0
    5.6962   71.1062   70.3542 H   0  0  0  0  0  0  0  0  0  0  0  0
    7.6582   71.1885   68.8260 H   0  0  0  0  0  0  0  0  0  0  0  0
    7.4244   70.4516   66.4614 H   0  0  0  0  0  0  0  0  0  0  0  0
  2  1  2  0
  3  2  1  0
  4  3  2  0
  5  4  1  0
  6  5  2  0
  6  1  1  0
  8  7  2  0
  8  1  1  0
  9  8  1  0
 10  9  1  0
 11 10  1  0
 12 11  1  0
 13 12  2  0
 14 13  1  0
 15 14  1  0
 16 12  1  0
 16 15  2  0
 17 16  1  0
 18 17  2  0
 19 18  1  0
 20 19  2  0
 20 15  1  0
 21  4  1  0
 22 21  1  0
 23 22  1  0
 24 23  1  0
 25 24  1  0
 26 25  1  0
 27 26  2  0
 28 27  1  0
 29 28  2  0
 30 29  1  0
 31 30  2  0
 31 26  1  0
 32 31  1  0
 33 32  2  0
 34 33  1  0
 35 30  1  0
 35 34  2  0
  2 36  1  0
  3 37  1  0
  5 38  1  0
  6 39  1  0
  9 40  1  0
 10 41  1  0
 10 42  1  0
 11 43  1  0
 11 44  1  0
 13 45  1  0
 14 46  1  0
 17 47  1  0
 18 48  1  0
 19 49  1  0
 20 50  1  0
 22 51  1  0
 22 52  1  0
 23 53  1  0
 23 54  1  0
 24 55  1  0
 24 56  1  0
 25 57  1  0
 25 58  1  0
 27 59  1  0
 28 60  1  0
 29 61  1  0
 32 62  1  0
 33 63  1  0
 34 64  1  0
 35 65  1  0
M  CHG  1  26   1
M  END
>  <score>  (4) 
-11.359

$$$$
=
     RDKit          3D

 65 69  0  0  0  0  0  0  0  0999 V2000
    1.0080   63.8370   71.8680 C   0  0  0  0  0  0  0  0  0  0  0  0
    0.0330   64.8370   71.7960 C   0  0  0  0  0  0  0  0  0  0  0  0
    0.1390   65.8430   70.8290 C   0  0  0  0  0  0  0  0  0  0  0  0
    1.2040   65.8560   69.9240 C   0  0  0  0  0  0  0  0  0  0  0  0
    2.1750   64.8570   69.9950 C   0  0  0  0  0  0  0  0  0  0  0  0
    2.0720   63.8480   70.9590 C   0  0  0  0  0  0  0  0  0  0  0  0
    1.3650   62.9030   73.9960 O   0  0  0  0  0  0  0  0  0  0  0  0
    0.9370   62.7300   72.8610 C   0  0  0  0  0  0  0  0  0  0  0  0
    0.3470   61.5580   72.4310 N   0  0  0  0  0  0  0  0  0  0  0  0
    0.0920   60.4750   73.3700 C   0  0  0  0  0  0  0  0  0  0  0  0
    1.0240   59.2880   73.1300 C   0  0  0  0  0  0  0  0  0  0  0  0
    2.4620   59.6880   73.0760 C   0  0  0  0  0  0  0  0  0  0  0  0
    3.3440   59.7280   74.1390 C   0  0  0  0  0  0  0  0  0  0  0  0
    4.5620   60.1430   73.6720 N   0  0  0  0  0  0  0  0  0  0  0  0
    4.4990   60.3770   72.3190 C   0  0  0  0  0  0  0  0  0  0  0  0
    3.1930   60.1010   71.9150 C   0  0  0  0  0  0  0  0  0  0  0  0
    2.8610   60.2670   70.5540 C   0  0  0  0  0  0  0  0  0  0  0  0
    3.8420   60.7000   69.6530 C   0  0  0  0  0  0  0  0  0  0  0  0
    5.1380   60.9660   70.0890 C   0  0  0  0  0  0  0  0  0  0  0  0
    5.4920   60.8110   71.4320 C   0  0  0  0  0  0  0  0  0  0  0  0
    1.1760   66.8870   69.0240 O   0  0  0  0  0  0  0  0  0  0  0  0
   -0.1040   67.2880   68.5410 C   0  0  0  0  0  0  0  0  0  0  0  0
   -0.0390   67.3470   67.0130 C   0  0  0  0  0  0  0  0  0  0  0  0
    1.4050   67.4040   66.5020 C   0  0  0  0  0  0  0  0  0  0  0  0
    1.6920   68.6010   65.5970 C   0  0  0  0  0  0  0  0  0  0  0  0
    3.1040   69.0540   65.7360 N   0  0  0  0  0  4  0  0  0  0  0  0
    3.8850   68.9490   64.6290 C   0  0  0  0  0  0  0  0  0  0  0  0
    5.2060   69.3550   64.6230 C   0  0  0  0  0  0  0  0  0  0  0  0
    5.7500   69.8930   65.7740 C   0  0  0  0  0  0  0  0  0  0  0  0
    4.9630   70.0180   66.9170 C   0  0  0  0  0  0  0  0  0  0  0  0
    3.6040   69.5890   66.8980 C   0  0  0  0  0  0  0  0  0  0  0  0
    2.8550   69.7340   68.0810 C   0  0  0  0  0  0  0  0  0  0  0  0
    3.4210   70.2830   69.2370 C   0  0  0  0  0  0  0  0  0  0  0  0
    4.7450   70.6980   69.2380 C   0  0  0  0  0  0  0  0  0  0  0  0
    5.5140   70.5660   68.0850 C   0  0  0  0  0  0  0  0  0  0  0  0
   -0.8145   64.8328   72.4972 H   0  0  0  0  0  0  0  0  0  0  0  0
   -0.6250   66.6329   70.7806 H   0  0  0  0  0  0  0  0  0  0  0  0
    3.0219   64.8624   69.2930 H   0  0  0  0  0  0  0  0  0  0  0  0
    2.8343   63.0562   71.0027 H   0  0  0  0  0  0  0  0  0  0  0  0
    0.0859   61.4493   71.4406 H   0  0  0  0  0  0  0  0  0  0  0  0
    0.2451   60.8472   74.3937 H   0  0  0  0  0  0  0  0  0  0  0  0
   -0.9434   60.1327   73.2259 H   0  0  0  0  0  0  0  0  0  0  0  0
    0.8902   58.5642   73.9475 H   0  0  0  0  0  0  0  0  0  0  0  0
    0.7629   58.8516   72.1546 H   0  0  0  0  0  0  0  0  0  0  0  0
    3.1078   59.4704   75.1820 H   0  0  0  0  0  0  0  0  0  0  0  0
    5.4050   60.2628   74.2515 H   0  0  0  0  0  0  0  0  0  0  0  0
    1.8396   60.0580   70.2031 H   0  0  0  0  0  0  0  0  0  0  0  0
    3.5867   60.8313   68.5911 H   0  0  0  0  0  0  0  0  0  0  0  0
    5.8944   61.3032   69.3650 H   0  0  0  0  0  0  0  0  0  0  0  0
    6.5139   61.0223   71.7799 H   0  0  0  0  0  0  0  0  0  0  0  0
   -0.8657   66.5587   68.8538 H   0  0  0  0  0  0  0  0  0  0  0  0
   -0.3736   68.2733   68.9491 H   0  0  0  0  0  0  0  0  0  0  0  0
   -0.5262   66.4506   66.6018 H   0  0  0  0  0  0  0  0  0  0  0  0
   -0.5518   68.2636   66.6860 H   0  0  0  0  0  0  0  0  0  0  0  0
    2.0783   67.4564   67.3703 H   0  0  0  0  0  0  0  0  0  0  0  0
    1.5669   66.4993   65.8976 H   0  0  0  0  0  0  0  0  0  0  0  0
    1.5089   68.3125   64.5514 H   0  0  0  0  0  0  0  0  0  0  0  0
    1.0298   69.4282   65.8924 H   0  0  0  0  0  0  0  0  0  0  0  0
    3.4525   68.5279   63.7094 H   0  0  0  0  0  0  0  0  0  0  0  0
    5.8166   69.2513   63.7139 H   0  0  0  0  0  0  0  0  0  0  0  0
    6.7998   70.2211   65.7877 H   0  0  0  0  0  0  0  0  0  0  0  0
    1.8041   69.4094   68.0970 H   0  0  0  0  0  0  0  0  0  0  0  0
    2.8139   70.3860   70.1485 H   0  0  0  0  0  0  0  0  0  0  0  0
    5.1862   71.1305   70.1481 H   0  0  0  0  0  0  0  0  0  0  0  0
    6.5638   70.8946   68.0899 H   0  0  0  0  0  0  0  0  0  0  0  0
  2  1  2  0
  3  2  1  0
  4  3  2  0
  5  4  1  0
  6  5  2  0
  6  1  1  0
  8  7  2  0
  8  1  1  0
  9  8  1  0
 10  9  1  0
 11 10  1  0
 12 11  1  0
 13 12  2  0
 14 13  1  0
 15 14  1  0
 16 12  1  0
 16 15  2  0
 17 16  1  0
 18 17  2  0
 19 18  1  0
 20 19  2  0
 20 15  1  0
 21  4  1  0
 22 21  1  0
 23 22  1  0
 24 23  1  0
 25 24  1  0
 26 25  1  0
 27 26  2  0
 28 27  1  0
 29 28  2  0
 30 29  1  0
 31 30  2  0
 31 26  1  0
 32 31  1  0
 33 32  2  0
 34 33  1  0
 35 30  1  0
 35 34  2  0
  2 36  1  0
  3 37  1  0
  5 38  1  0
  6 39  1  0
  9 40  1  0
 10 41  1  0
 10 42  1  0
 11 43  1  0
 11 44  1  0
 13 45  1  0
 14 46  1  0
 17 47  1  0
 18 48  1  0
 19 49  1  0
 20 50  1  0
 22 51  1  0
 22 52  1  0
 23 53  1  0
 23 54  1  0
 24 55  1  0
 24 56  1  0
 25 57  1  0
 25 58  1  0
 27 59  1  0
 28 60  1  0
 29 61  1  0
 32 62  1  0
 33 63  1  0
 34 64  1  0
 35 65  1  0
M  CHG  1  26   1
M  END
>  <score>  (5) 
-11.058

$$$$
=
     RDKit          3D

 65 69  0  0  0  0  0  0  0  0999 V2000
    0.5650   65.3710   70.5940 C   0  0  0  0  0  0  0  0  0  0  0  0
    0.7370   64.0620   70.1340 C   0  0  0  0  0  0  0  0  0  0  0  0
    0.5340   62.9860   71.0050 C   0  0  0  0  0  0  0  0  0  0  0  0
    0.1500   63.2020   72.3320 C   0  0  0  0  0  0  0  0  0  0  0  0
   -0.0250   64.5080   72.7890 C   0  0  0  0  0  0  0  0  0  0  0  0
    0.1750   65.5870   71.9220 C   0  0  0  0  0  0  0  0  0  0  0  0
    1.6640   67.3370   69.9200 O   0  0  0  0  0  0  0  0  0  0  0  0
    0.7450   66.5540   69.7090 C   0  0  0  0  0  0  0  0  0  0  0  0
   -0.1440   66.6760   68.6600 N   0  0  0  0  0  0  0  0  0  0  0  0
    0.0440   67.7100   67.6520 C   0  0  0  0  0  0  0  0  0  0  0  0
    0.9780   67.2450   66.5350 C   0  0  0  0  0  0  0  0  0  0  0  0
    2.1370   68.1670   66.3330 C   0  0  0  0  0  0  0  0  0  0  0  0
    2.5900   69.1210   67.2240 C   0  0  0  0  0  0  0  0  0  0  0  0
    3.6700   69.7500   66.6660 N   0  0  0  0  0  0  0  0  0  0  0  0
    3.9370   69.2280   65.4230 C   0  0  0  0  0  0  0  0  0  0  0  0
    2.9900   68.2300   65.1860 C   0  0  0  0  0  0  0  0  0  0  0  0
    3.0440   67.5310   63.9620 C   0  0  0  0  0  0  0  0  0  0  0  0
    4.0360   67.8520   63.0270 C   0  0  0  0  0  0  0  0  0  0  0  0
    4.9670   68.8530   63.2960 C   0  0  0  0  0  0  0  0  0  0  0  0
    4.9360   69.5610   64.5000 C   0  0  0  0  0  0  0  0  0  0  0  0
   -0.0280   62.0620   73.0680 O   0  0  0  0  0  0  0  0  0  0  0  0
    1.0240   61.0990   73.0300 C   0  0  0  0  0  0  0  0  0  0  0  0
    2.0160   61.4350   74.1460 C   0  0  0  0  0  0  0  0  0  0  0  0
    3.0490   60.3220   74.3510 C   0  0  0  0  0  0  0  0  0  0  0  0
    4.3130   60.4920   73.5100 C   0  0  0  0  0  0  0  0  0  0  0  0
    4.0420   60.2210   72.0700 N   0  0  0  0  0  4  0  0  0  0  0  0
    3.7440   58.9370   71.7420 C   0  0  0  0  0  0  0  0  0  0  0  0
    3.4520   58.5610   70.4440 C   0  0  0  0  0  0  0  0  0  0  0  0
    3.4540   59.5200   69.4490 C   0  0  0  0  0  0  0  0  0  0  0  0
    3.7480   60.8450   69.7670 C   0  0  0  0  0  0  0  0  0  0  0  0
    4.0480   61.2060   71.1120 C   0  0  0  0  0  0  0  0  0  0  0  0
    4.3410   62.5570   71.3780 C   0  0  0  0  0  0  0  0  0  0  0  0
    4.3360   63.5160   70.3600 C   0  0  0  0  0  0  0  0  0  0  0  0
    4.0390   63.1480   69.0540 C   0  0  0  0  0  0  0  0  0  0  0  0
    3.7470   61.8190   68.7580 C   0  0  0  0  0  0  0  0  0  0  0  0
    1.0311   63.8785   69.0901 H   0  0  0  0  0  0  0  0  0  0  0  0
    0.6782   61.9579   70.6415 H   0  0  0  0  0  0  0  0  0  0  0  0
   -0.3207   64.6896   73.8328 H   0  0  0  0  0  0  0  0  0  0  0  0
    0.0248   66.6141   72.2860 H   0  0  0  0  0  0  0  0  0  0  0  0
   -0.9448   66.0320   68.5899 H   0  0  0  0  0  0  0  0  0  0  0  0
   -0.9333   67.9657   67.2166 H   0  0  0  0  0  0  0  0  0  0  0  0
    0.4991   68.5854   68.1384 H   0  0  0  0  0  0  0  0  0  0  0  0
    1.3626   66.2465   66.7903 H   0  0  0  0  0  0  0  0  0  0  0  0
    0.3978   67.2299   65.6006 H   0  0  0  0  0  0  0  0  0  0  0  0
    2.1572   69.3377   68.2118 H   0  0  0  0  0  0  0  0  0  0  0  0
    4.2063   70.5068   67.1139 H   0  0  0  0  0  0  0  0  0  0  0  0
    2.3122   66.7394   63.7434 H   0  0  0  0  0  0  0  0  0  0  0  0
    4.0805   67.3088   62.0715 H   0  0  0  0  0  0  0  0  0  0  0  0
    5.7386   69.0896   62.5486 H   0  0  0  0  0  0  0  0  0  0  0  0
    5.6699   70.3516   64.7152 H   0  0  0  0  0  0  0  0  0  0  0  0
    0.6128   60.0910   73.1876 H   0  0  0  0  0  0  0  0  0  0  0  0
    1.5276   61.1228   72.0523 H   0  0  0  0  0  0  0  0  0  0  0  0
    2.5428   62.3646   73.8847 H   0  0  0  0  0  0  0  0  0  0  0  0
    1.4488   61.5483   75.0817 H   0  0  0  0  0  0  0  0  0  0  0  0
    3.3378   60.3079   75.4123 H   0  0  0  0  0  0  0  0  0  0  0  0
    2.5753   59.3821   74.0313 H   0  0  0  0  0  0  0  0  0  0  0  0
    4.6801   61.5233   73.6182 H   0  0  0  0  0  0  0  0  0  0  0  0
    5.0666   59.7732   73.8641 H   0  0  0  0  0  0  0  0  0  0  0  0
    3.7347   58.1730   72.5333 H   0  0  0  0  0  0  0  0  0  0  0  0
    3.2211   57.5121   70.2064 H   0  0  0  0  0  0  0  0  0  0  0  0
    3.2246   59.2390   68.4105 H   0  0  0  0  0  0  0  0  0  0  0  0
    4.5786   62.8645   72.4071 H   0  0  0  0  0  0  0  0  0  0  0  0
    4.5681   64.5654   70.5944 H   0  0  0  0  0  0  0  0  0  0  0  0
    4.0345   63.9045   68.2555 H   0  0  0  0  0  0  0  0  0  0  0  0
    3.5133   61.5303   67.7226 H   0  0  0  0  0  0  0  0  0  0  0  0
  2  1  2  0
  3  2  1  0
  4  3  2  0
  5  4  1  0
  6  5  2  0
  6  1  1  0
  8  7  2  0
  8  1  1  0
  9  8  1  0
 10  9  1  0
 11 10  1  0
 12 11  1  0
 13 12  2  0
 14 13  1  0
 15 14  1  0
 16 12  1  0
 16 15  2  0
 17 16  1  0
 18 17  2  0
 19 18  1  0
 20 19  2  0
 20 15  1  0
 21  4  1  0
 22 21  1  0
 23 22  1  0
 24 23  1  0
 25 24  1  0
 26 25  1  0
 27 26  2  0
 28 27  1  0
 29 28  2  0
 30 29  1  0
 31 30  2  0
 31 26  1  0
 32 31  1  0
 33 32  2  0
 34 33  1  0
 35 30  1  0
 35 34  2  0
  2 36  1  0
  3 37  1  0
  5 38  1  0
  6 39  1  0
  9 40  1  0
 10 41  1  0
 10 42  1  0
 11 43  1  0
 11 44  1  0
 13 45  1  0
 14 46  1  0
 17 47  1  0
 18 48  1  0
 19 49  1  0
 20 50  1  0
 22 51  1  0
 22 52  1  0
 23 53  1  0
 23 54  1  0
 24 55  1  0
 24 56  1  0
 25 57  1  0
 25 58  1  0
 27 59  1  0
 28 60  1  0
 29 61  1  0
 32 62  1  0
 33 63  1  0
 34 64  1  0
 35 65  1  0
M  CHG  1  26   1
M  END
>  <score>  (6) 
-10.87

$$$$
=
     RDKit          3D

 65 69  0  0  0  0  0  0  0  0999 V2000
    2.0940   62.4170   71.7520 C   0  0  0  0  0  0  0  0  0  0  0  0
    0.9110   63.0860   72.0790 C   0  0  0  0  0  0  0  0  0  0  0  0
    0.6280   64.3250   71.4920 C   0  0  0  0  0  0  0  0  0  0  0  0
    1.5090   64.9000   70.5730 C   0  0  0  0  0  0  0  0  0  0  0  0
    2.6890   64.2310   70.2450 C   0  0  0  0  0  0  0  0  0  0  0  0
    2.9760   62.9920   70.8270 C   0  0  0  0  0  0  0  0  0  0  0  0
    2.0390   60.0670   71.7780 O   0  0  0  0  0  0  0  0  0  0  0  0
    2.4390   61.0870   72.3250 C   0  0  0  0  0  0  0  0  0  0  0  0
    3.2360   61.0940   73.4530 N   0  0  0  0  0  0  0  0  0  0  0  0
    3.7530   59.8460   73.9950 C   0  0  0  0  0  0  0  0  0  0  0  0
    2.9380   59.3720   75.1970 C   0  0  0  0  0  0  0  0  0  0  0  0
    2.8620   57.8830   75.2900 C   0  0  0  0  0  0  0  0  0  0  0  0
    3.7610   57.0540   75.9320 C   0  0  0  0  0  0  0  0  0  0  0  0
    3.3340   55.7610   75.7880 N   0  0  0  0  0  0  0  0  0  0  0  0
    2.1670   55.7240   75.0610 C   0  0  0  0  0  0  0  0  0  0  0  0
    1.8450   57.0410   74.7330 C   0  0  0  0  0  0  0  0  0  0  0  0
    0.6790   57.2790   73.9780 C   0  0  0  0  0  0  0  0  0  0  0  0
   -0.1180   56.1990   73.5800 C   0  0  0  0  0  0  0  0  0  0  0  0
    0.2310   54.8950   73.9250 C   0  0  0  0  0  0  0  0  0  0  0  0
    1.3810   54.6320   74.6720 C   0  0  0  0  0  0  0  0  0  0  0  0
    1.1020   66.1050   70.0680 O   0  0  0  0  0  0  0  0  0  0  0  0
   -0.2150   66.1650   69.5250 C   0  0  0  0  0  0  0  0  0  0  0  0
   -0.2080   67.1710   68.3710 C   0  0  0  0  0  0  0  0  0  0  0  0
    1.2020   67.6910   68.0710 C   0  0  0  0  0  0  0  0  0  0  0  0
    1.2300   68.8890   67.1240 C   0  0  0  0  0  0  0  0  0  0  0  0
    2.6010   69.1190   66.5880 N   0  0  0  0  0  4  0  0  0  0  0  0
    2.8130   68.7590   65.2950 C   0  0  0  0  0  0  0  0  0  0  0  0
    4.0350   68.9410   64.6740 C   0  0  0  0  0  0  0  0  0  0  0  0
    5.0710   69.5150   65.3860 C   0  0  0  0  0  0  0  0  0  0  0  0
    4.8710   69.8990   66.7100 C   0  0  0  0  0  0  0  0  0  0  0  0
    3.6030   69.6980   67.3270 C   0  0  0  0  0  0  0  0  0  0  0  0
    3.4550   70.1020   68.6670 C   0  0  0  0  0  0  0  0  0  0  0  0
    4.5150   70.6830   69.3730 C   0  0  0  0  0  0  0  0  0  0  0  0
    5.7440   70.8740   68.7560 C   0  0  0  0  0  0  0  0  0  0  0  0
    5.9220   70.4840   67.4310 C   0  0  0  0  0  0  0  0  0  0  0  0
    0.2049   62.6404   72.7951 H   0  0  0  0  0  0  0  0  0  0  0  0
   -0.2999   64.8525   71.7578 H   0  0  0  0  0  0  0  0  0  0  0  0
    3.3936   64.6783   69.5285 H   0  0  0  0  0  0  0  0  0  0  0  0
    3.9023   62.4641   70.5563 H   0  0  0  0  0  0  0  0  0  0  0  0
    3.4656   61.9866   73.9128 H   0  0  0  0  0  0  0  0  0  0  0  0
    3.7152   59.0744   73.2119 H   0  0  0  0  0  0  0  0  0  0  0  0
    4.7870   60.0189   74.3282 H   0  0  0  0  0  0  0  0  0  0  0  0
    3.4061   59.7586   76.1143 H   0  0  0  0  0  0  0  0  0  0  0  0
    1.9125   59.7503   75.0736 H   0  0  0  0  0  0  0  0  0  0  0  0
    4.6657   57.3773   76.4676 H   0  0  0  0  0  0  0  0  0  0  0  0
    3.8171   54.9351   76.1692 H   0  0  0  0  0  0  0  0  0  0  0  0
    0.3971   58.3062   73.7033 H   0  0  0  0  0  0  0  0  0  0  0  0
   -1.0280   56.3816   72.9896 H   0  0  0  0  0  0  0  0  0  0  0  0
   -0.4091   54.0600   73.6040 H   0  0  0  0  0  0  0  0  0  0  0  0
    1.6598   53.6036   74.9453 H   0  0  0  0  0  0  0  0  0  0  0  0
   -0.5105   65.1729   69.1530 H   0  0  0  0  0  0  0  0  0  0  0  0
   -0.9323   66.4770   70.2984 H   0  0  0  0  0  0  0  0  0  0  0  0
   -0.6048   66.6805   67.4699 H   0  0  0  0  0  0  0  0  0  0  0  0
   -0.8311   68.0287   68.6643 H   0  0  0  0  0  0  0  0  0  0  0  0
    1.6709   67.9887   69.0205 H   0  0  0  0  0  0  0  0  0  0  0  0
    1.7441   66.8750   67.5706 H   0  0  0  0  0  0  0  0  0  0  0  0
    0.5438   68.6998   66.2854 H   0  0  0  0  0  0  0  0  0  0  0  0
    0.9199   69.7835   67.6840 H   0  0  0  0  0  0  0  0  0  0  0  0
    1.9870   68.3089   64.7247 H   0  0  0  0  0  0  0  0  0  0  0  0
    4.1804   68.6332   63.6280 H   0  0  0  0  0  0  0  0  0  0  0  0
    6.0502   69.6681   64.9089 H   0  0  0  0  0  0  0  0  0  0  0  0
    2.4871   69.9584   69.1696 H   0  0  0  0  0  0  0  0  0  0  0  0
    4.3738   70.9892   70.4200 H   0  0  0  0  0  0  0  0  0  0  0  0
    6.5750   71.3322   69.3123 H   0  0  0  0  0  0  0  0  0  0  0  0
    6.8970   70.6364   66.9450 H   0  0  0  0  0  0  0  0  0  0  0  0
  2  1  2  0
  3  2  1  0
  4  3  2  0
  5  4  1  0
  6  5  2  0
  6  1  1  0
  8  7  2  0
  8  1  1  0
  9  8  1  0
 10  9  1  0
 11 10  1  0
 12 11  1  0
 13 12  2  0
 14 13  1  0
 15 14  1  0
 16 12  1  0
 16 15  2  0
 17 16  1  0
 18 17  2  0
 19 18  1  0
 20 19  2  0
 20 15  1  0
 21  4  1  0
 22 21  1  0
 23 22  1  0
 24 23  1  0
 25 24  1  0
 26 25  1  0
 27 26  2  0
 28 27  1  0
 29 28  2  0
 30 29  1  0
 31 30  2  0
 31 26  1  0
 32 31  1  0
 33 32  2  0
 34 33  1  0
 35 30  1  0
 35 34  2  0
  2 36  1  0
  3 37  1  0
  5 38  1  0
  6 39  1  0
  9 40  1  0
 10 41  1  0
 10 42  1  0
 11 43  1  0
 11 44  1  0
 13 45  1  0
 14 46  1  0
 17 47  1  0
 18 48  1  0
 19 49  1  0
 20 50  1  0
 22 51  1  0
 22 52  1  0
 23 53  1  0
 23 54  1  0
 24 55  1  0
 24 56  1  0
 25 57  1  0
 25 58  1  0
 27 59  1  0
 28 60  1  0
 29 61  1  0
 32 62  1  0
 33 63  1  0
 34 64  1  0
 35 65  1  0
M  CHG  1  26   1
M  END
>  <score>  (7) 
-10.672

$$$$
=
     RDKit          3D

 65 69  0  0  0  0  0  0  0  0999 V2000
    0.9980   63.7790   71.9170 C   0  0  0  0  0  0  0  0  0  0  0  0
    0.0220   64.7810   71.9000 C   0  0  0  0  0  0  0  0  0  0  0  0
    0.0590   65.7690   70.9100 C   0  0  0  0  0  0  0  0  0  0  0  0
    1.0540   65.7640   69.9280 C   0  0  0  0  0  0  0  0  0  0  0  0
    2.0250   64.7620   69.9450 C   0  0  0  0  0  0  0  0  0  0  0  0
    1.9920   63.7710   70.9310 C   0  0  0  0  0  0  0  0  0  0  0  0
    1.5070   62.8810   74.0300 O   0  0  0  0  0  0  0  0  0  0  0  0
    0.9980   62.6890   72.9310 C   0  0  0  0  0  0  0  0  0  0  0  0
    0.3790   61.5110   72.5650 N   0  0  0  0  0  0  0  0  0  0  0  0
    0.1910   60.4450   73.5390 C   0  0  0  0  0  0  0  0  0  0  0  0
    1.1310   59.2690   73.2760 C   0  0  0  0  0  0  0  0  0  0  0  0
    2.5560   59.6920   73.1330 C   0  0  0  0  0  0  0  0  0  0  0  0
    3.4960   59.7620   74.1430 C   0  0  0  0  0  0  0  0  0  0  0  0
    4.6780   60.1900   73.6000 N   0  0  0  0  0  0  0  0  0  0  0  0
    4.5340   60.4040   72.2500 C   0  0  0  0  0  0  0  0  0  0  0  0
    3.2110   60.0990   71.9260 C   0  0  0  0  0  0  0  0  0  0  0  0
    2.7990   60.2400   70.5850 C   0  0  0  0  0  0  0  0  0  0  0  0
    3.7180   60.6760   69.6230 C   0  0  0  0  0  0  0  0  0  0  0  0
    5.0320   60.9710   69.9800 C   0  0  0  0  0  0  0  0  0  0  0  0
    5.4660   60.8410   71.3010 C   0  0  0  0  0  0  0  0  0  0  0  0
    0.9620   66.7790   69.0150 O   0  0  0  0  0  0  0  0  0  0  0  0
   -0.3490   67.2230   68.6740 C   0  0  0  0  0  0  0  0  0  0  0  0
   -0.4490   67.2800   67.1480 C   0  0  0  0  0  0  0  0  0  0  0  0
    0.9300   67.3640   66.4840 C   0  0  0  0  0  0  0  0  0  0  0  0
    1.1600   68.6540   65.6980 C   0  0  0  0  0  0  0  0  0  0  0  0
    2.5920   69.0600   65.7390 N   0  0  0  0  0  4  0  0  0  0  0  0
    3.0840   69.4210   66.9530 C   0  0  0  0  0  0  0  0  0  0  0  0
    4.4030   69.7990   67.1260 C   0  0  0  0  0  0  0  0  0  0  0  0
    5.2510   69.8020   66.0350 C   0  0  0  0  0  0  0  0  0  0  0  0
    4.7670   69.4270   64.7830 C   0  0  0  0  0  0  0  0  0  0  0  0
    3.4030   69.0440   64.6300 C   0  0  0  0  0  0  0  0  0  0  0  0
    2.9660   68.6770   63.3440 C   0  0  0  0  0  0  0  0  0  0  0  0
    3.8380   68.6840   62.2500 C   0  0  0  0  0  0  0  0  0  0  0  0
    5.1650   69.0570   62.4160 C   0  0  0  0  0  0  0  0  0  0  0  0
    5.6280   69.4270   63.6760 C   0  0  0  0  0  0  0  0  0  0  0  0
   -0.7714   64.7921   72.6619 H   0  0  0  0  0  0  0  0  0  0  0  0
   -0.7051   66.5603   70.9043 H   0  0  0  0  0  0  0  0  0  0  0  0
    2.8172   64.7517   69.1820 H   0  0  0  0  0  0  0  0  0  0  0  0
    2.7541   62.9778   70.9320 H   0  0  0  0  0  0  0  0  0  0  0  0
    0.0482   61.3852   71.5977 H   0  0  0  0  0  0  0  0  0  0  0  0
    0.3894   60.8422   74.5454 H   0  0  0  0  0  0  0  0  0  0  0  0
   -0.8443   60.0826   73.4562 H   0  0  0  0  0  0  0  0  0  0  0  0
    1.0559   58.5634   74.1166 H   0  0  0  0  0  0  0  0  0  0  0  0
    0.8251   58.8045   72.3269 H   0  0  0  0  0  0  0  0  0  0  0  0
    3.3245   59.5162   75.2014 H   0  0  0  0  0  0  0  0  0  0  0  0
    5.5509   60.3314   74.1282 H   0  0  0  0  0  0  0  0  0  0  0  0
    1.7629   60.0091   70.2967 H   0  0  0  0  0  0  0  0  0  0  0  0
    3.3997   60.7866   68.5759 H   0  0  0  0  0  0  0  0  0  0  0  0
    5.7388   61.3117   69.2091 H   0  0  0  0  0  0  0  0  0  0  0  0
    6.5028   61.0736   71.5857 H   0  0  0  0  0  0  0  0  0  0  0  0
   -1.0959   66.5196   69.0707 H   0  0  0  0  0  0  0  0  0  0  0  0
   -0.5396   68.2165   69.1060 H   0  0  0  0  0  0  0  0  0  0  0  0
   -0.9599   66.3734   66.7916 H   0  0  0  0  0  0  0  0  0  0  0  0
   -1.0113   68.1862   66.8784 H   0  0  0  0  0  0  0  0  0  0  0  0
    1.6974   67.2950   67.2691 H   0  0  0  0  0  0  0  0  0  0  0  0
    0.9887   66.5354   65.7629 H   0  0  0  0  0  0  0  0  0  0  0  0
    0.8618   68.4947   64.6512 H   0  0  0  0  0  0  0  0  0  0  0  0
    0.5576   69.4530   66.1549 H   0  0  0  0  0  0  0  0  0  0  0  0
    2.4129   69.4123   67.8245 H   0  0  0  0  0  0  0  0  0  0  0  0
    4.7723   70.0935   68.1194 H   0  0  0  0  0  0  0  0  0  0  0  0
    6.3034   70.0991   66.1541 H   0  0  0  0  0  0  0  0  0  0  0  0
    1.9177   68.3786   63.1957 H   0  0  0  0  0  0  0  0  0  0  0  0
    3.4709   68.3929   61.2547 H   0  0  0  0  0  0  0  0  0  0  0  0
    5.8488   69.0602   61.5544 H   0  0  0  0  0  0  0  0  0  0  0  0
    6.6798   69.7223   63.8044 H   0  0  0  0  0  0  0  0  0  0  0  0
  2  1  2  0
  3  2  1  0
  4  3  2  0
  5  4  1  0
  6  5  2  0
  6  1  1  0
  8  7  2  0
  8  1  1  0
  9  8  1  0
 10  9  1  0
 11 10  1  0
 12 11  1  0
 13 12  2  0
 14 13  1  0
 15 14  1  0
 16 12  1  0
 16 15  2  0
 17 16  1  0
 18 17  2  0
 19 18  1  0
 20 19  2  0
 20 15  1  0
 21  4  1  0
 22 21  1  0
 23 22  1  0
 24 23  1  0
 25 24  1  0
 26 25  1  0
 27 26  2  0
 28 27  1  0
 29 28  2  0
 30 29  1  0
 31 30  2  0
 31 26  1  0
 32 31  1  0
 33 32  2  0
 34 33  1  0
 35 30  1  0
 35 34  2  0
  2 36  1  0
  3 37  1  0
  5 38  1  0
  6 39  1  0
  9 40  1  0
 10 41  1  0
 10 42  1  0
 11 43  1  0
 11 44  1  0
 13 45  1  0
 14 46  1  0
 17 47  1  0
 18 48  1  0
 19 49  1  0
 20 50  1  0
 22 51  1  0
 22 52  1  0
 23 53  1  0
 23 54  1  0
 24 55  1  0
 24 56  1  0
 25 57  1  0
 25 58  1  0
 27 59  1  0
 28 60  1  0
 29 61  1  0
 32 62  1  0
 33 63  1  0
 34 64  1  0
 35 65  1  0
M  CHG  1  26   1
M  END
>  <score>  (8) 
-10.634

$$$$
=
     RDKit          3D

 65 69  0  0  0  0  0  0  0  0999 V2000
    1.6850   64.6930   70.4740 C   0  0  0  0  0  0  0  0  0  0  0  0
    2.9060   64.4060   69.8560 C   0  0  0  0  0  0  0  0  0  0  0  0
    3.6530   63.2990   70.2740 C   0  0  0  0  0  0  0  0  0  0  0  0
    3.1900   62.4670   71.2970 C   0  0  0  0  0  0  0  0  0  0  0  0
    1.9710   62.7520   71.9110 C   0  0  0  0  0  0  0  0  0  0  0  0
    1.2190   63.8560   71.4970 C   0  0  0  0  0  0  0  0  0  0  0  0
   -0.0260   66.2670   70.8190 O   0  0  0  0  0  0  0  0  0  0  0  0
    0.8360   65.8420   70.0590 C   0  0  0  0  0  0  0  0  0  0  0  0
    1.1060   66.3880   68.8200 N   0  0  0  0  0  0  0  0  0  0  0  0
    0.4370   67.6080   68.3910 C   0  0  0  0  0  0  0  0  0  0  0  0
    1.4380   68.6990   68.0140 C   0  0  0  0  0  0  0  0  0  0  0  0
    1.8300   68.6470   66.5730 C   0  0  0  0  0  0  0  0  0  0  0  0
    1.0450   68.2050   65.5260 C   0  0  0  0  0  0  0  0  0  0  0  0
    1.7670   68.3210   64.3690 N   0  0  0  0  0  0  0  0  0  0  0  0
    3.0150   68.8320   64.6350 C   0  0  0  0  0  0  0  0  0  0  0  0
    3.0850   69.0480   66.0120 C   0  0  0  0  0  0  0  0  0  0  0  0
    4.2770   69.5740   66.5500 C   0  0  0  0  0  0  0  0  0  0  0  0
    5.3500   69.8630   65.6980 C   0  0  0  0  0  0  0  0  0  0  0  0
    5.2470   69.6370   64.3270 C   0  0  0  0  0  0  0  0  0  0  0  0
    4.0770   69.1170   63.7690 C   0  0  0  0  0  0  0  0  0  0  0  0
    4.0130   61.4150   71.5940 O   0  0  0  0  0  0  0  0  0  0  0  0
    4.2340   61.1370   72.9760 C   0  0  0  0  0  0  0  0  0  0  0  0
    4.1220   59.6250   73.1810 C   0  0  0  0  0  0  0  0  0  0  0  0
    2.8290   59.2370   73.9050 C   0  0  0  0  0  0  0  0  0  0  0  0
    1.8420   58.4610   73.0330 C   0  0  0  0  0  0  0  0  0  0  0  0
    0.5390   58.2750   73.7300 N   0  0  0  0  0  4  0  0  0  0  0  0
    0.3730   57.1050   74.4010 C   0  0  0  0  0  0  0  0  0  0  0  0
   -0.7820   56.8210   75.1050 C   0  0  0  0  0  0  0  0  0  0  0  0
   -1.7980   57.7580   75.1360 C   0  0  0  0  0  0  0  0  0  0  0  0
   -1.6440   58.9680   74.4630 C   0  0  0  0  0  0  0  0  0  0  0  0
   -0.4440   59.2350   73.7420 C   0  0  0  0  0  0  0  0  0  0  0  0
   -0.3400   60.4710   73.0770 C   0  0  0  0  0  0  0  0  0  0  0  0
   -1.3780   61.4090   73.1200 C   0  0  0  0  0  0  0  0  0  0  0  0
   -2.5390   61.1340   73.8290 C   0  0  0  0  0  0  0  0  0  0  0  0
   -2.6730   59.9200   74.4970 C   0  0  0  0  0  0  0  0  0  0  0  0
    3.2780   65.0482   69.0441 H   0  0  0  0  0  0  0  0  0  0  0  0
    4.6170   63.0809   69.7912 H   0  0  0  0  0  0  0  0  0  0  0  0
    1.6004   62.1077   72.7219 H   0  0  0  0  0  0  0  0  0  0  0  0
    0.2533   64.0693   71.9785 H   0  0  0  0  0  0  0  0  0  0  0  0
    1.7847   65.9296   68.1954 H   0  0  0  0  0  0  0  0  0  0  0  0
   -0.1901   67.3818   67.5160 H   0  0  0  0  0  0  0  0  0  0  0  0
   -0.1731   67.9771   69.2286 H   0  0  0  0  0  0  0  0  0  0  0  0
    0.9845   69.6797   68.2204 H   0  0  0  0  0  0  0  0  0  0  0  0
    2.3469   68.5380   68.6123 H   0  0  0  0  0  0  0  0  0  0  0  0
    0.0160   67.8249   65.6080 H   0  0  0  0  0  0  0  0  0  0  0  0
    1.4242   68.0623   63.4328 H   0  0  0  0  0  0  0  0  0  0  0  0
    4.3637   69.7561   67.6314 H   0  0  0  0  0  0  0  0  0  0  0  0
    6.2823   70.2720   66.1147 H   0  0  0  0  0  0  0  0  0  0  0  0
    6.1004   69.8718   63.6739 H   0  0  0  0  0  0  0  0  0  0  0  0
    3.9931   68.9377   62.6870 H   0  0  0  0  0  0  0  0  0  0  0  0
    5.2373   61.4796   73.2694 H   0  0  0  0  0  0  0  0  0  0  0  0
    3.4900   61.6613   73.5937 H   0  0  0  0  0  0  0  0  0  0  0  0
    4.1403   59.1313   72.1982 H   0  0  0  0  0  0  0  0  0  0  0  0
    4.9694   59.3035   73.8044 H   0  0  0  0  0  0  0  0  0  0  0  0
    3.0910   58.6126   74.7719 H   0  0  0  0  0  0  0  0  0  0  0  0
    2.3313   60.1739   74.1957 H   0  0  0  0  0  0  0  0  0  0  0  0
    1.6733   59.0177   72.0994 H   0  0  0  0  0  0  0  0  0  0  0  0
    2.2687   57.4695   72.8214 H   0  0  0  0  0  0  0  0  0  0  0  0
    1.1829   56.3609   74.3833 H   0  0  0  0  0  0  0  0  0  0  0  0
   -0.8913   55.8625   75.6334 H   0  0  0  0  0  0  0  0  0  0  0  0
   -2.7249   57.5488   75.6902 H   0  0  0  0  0  0  0  0  0  0  0  0
    0.5748   60.7044   72.5125 H   0  0  0  0  0  0  0  0  0  0  0  0
   -1.2732   62.3673   72.5901 H   0  0  0  0  0  0  0  0  0  0  0  0
   -3.3520   61.8742   73.8630 H   0  0  0  0  0  0  0  0  0  0  0  0
   -3.5951   59.7054   75.0570 H   0  0  0  0  0  0  0  0  0  0  0  0
  2  1  2  0
  3  2  1  0
  4  3  2  0
  5  4  1  0
  6  5  2  0
  6  1  1  0
  8  7  2  0
  8  1  1  0
  9  8  1  0
 10  9  1  0
 11 10  1  0
 12 11  1  0
 13 12  2  0
 14 13  1  0
 15 14  1  0
 16 12  1  0
 16 15  2  0
 17 16  1  0
 18 17  2  0
 19 18  1  0
 20 19  2  0
 20 15  1  0
 21  4  1  0
 22 21  1  0
 23 22  1  0
 24 23  1  0
 25 24  1  0
 26 25  1  0
 27 26  2  0
 28 27  1  0
 29 28  2  0
 30 29  1  0
 31 30  2  0
 31 26  1  0
 32 31  1  0
 33 32  2  0
 34 33  1  0
 35 30  1  0
 35 34  2  0
  2 36  1  0
  3 37  1  0
  5 38  1  0
  6 39  1  0
  9 40  1  0
 10 41  1  0
 10 42  1  0
 11 43  1  0
 11 44  1  0
 13 45  1  0
 14 46  1  0
 17 47  1  0
 18 48  1  0
 19 49  1  0
 20 50  1  0
 22 51  1  0
 22 52  1  0
 23 53  1  0
 23 54  1  0
 24 55  1  0
 24 56  1  0
 25 57  1  0
 25 58  1  0
 27 59  1  0
 28 60  1  0
 29 61  1  0
 32 62  1  0
 33 63  1  0
 34 64  1  0
 35 65  1  0
M  CHG  1  26   1
M  END
>  <score>  (9) 
-10.385

$$$$
