=
     RDKit          3D

 36 37  0  0  0  0  0  0  0  0999 V2000
    1.1880   68.1190   68.0190 S   0  0  0  0  0  0  0  0  0  0  0  0
   -0.2260   68.0180   66.4920 S   0  0  0  0  0  6  0  0  0  0  0  0
   -0.7920   66.6830   66.4940 O   0  0  0  0  0  0  0  0  0  0  0  0
   -1.0700   69.1920   66.5870 O   0  0  0  0  0  0  0  0  0  0  0  0
    0.7530   68.1930   65.0180 C   0  0  0  0  0  0  0  0  0  0  0  0
    0.2550   68.9100   63.9270 C   0  0  0  0  0  0  0  0  0  0  0  0
    1.0370   69.0420   62.7790 C   0  0  0  0  0  0  0  0  0  0  0  0
    2.3110   68.4600   62.7140 C   0  0  0  0  0  0  0  0  0  0  0  0
    2.8080   67.7690   63.8280 C   0  0  0  0  0  0  0  0  0  0  0  0
    2.0330   67.6330   64.9800 C   0  0  0  0  0  0  0  0  0  0  0  0
    3.1630   68.6370   61.4920 C   0  0  0  0  0  0  0  0  0  0  0  0
    1.6210   69.8730   68.0220 C   0  0  0  0  0  0  0  0  0  0  0  0
    5.9050   70.4560   68.1340 C   0  0  0  0  0  0  0  0  0  0  0  0
    5.2960   69.9460   66.9890 C   0  0  0  0  0  0  0  0  0  0  0  0
    3.9080   69.7620   66.9520 C   0  0  0  0  0  0  0  0  0  0  0  0
    3.1120   70.0880   68.0590 C   0  0  0  0  0  0  0  0  0  0  0  0
    3.7330   70.5920   69.2090 C   0  0  0  0  0  0  0  0  0  0  0  0
    5.1170   70.7770   69.2400 C   0  0  0  0  0  0  0  0  0  0  0  0
    7.7010   70.8750   69.6330 C   0  0  0  0  0  0  0  0  0  0  0  0
    7.2440   70.6850   68.3000 O   0  0  0  0  0  0  0  0  0  0  0  0
   -0.7448   69.3664   63.9728 H   0  0  0  0  0  0  0  0  0  0  0  0
    0.6509   69.6072   61.9179 H   0  0  0  0  0  0  0  0  0  0  0  0
    3.8164   67.3309   63.7935 H   0  0  0  0  0  0  0  0  0  0  0  0
    2.4262   67.0893   65.8516 H   0  0  0  0  0  0  0  0  0  0  0  0
    4.1984   68.8521   61.7949 H   0  0  0  0  0  0  0  0  0  0  0  0
    3.1404   67.7150   60.8925 H   0  0  0  0  0  0  0  0  0  0  0  0
    2.7750   69.4737   60.8925 H   0  0  0  0  0  0  0  0  0  0  0  0
    1.2177   70.3396   67.1111 H   0  0  0  0  0  0  0  0  0  0  0  0
    1.1904   70.3270   68.9267 H   0  0  0  0  0  0  0  0  0  0  0  0
    5.9071   69.6872   66.1118 H   0  0  0  0  0  0  0  0  0  0  0  0
    3.4372   69.3571   66.0440 H   0  0  0  0  0  0  0  0  0  0  0  0
    3.1275   70.8434   70.0923 H   0  0  0  0  0  0  0  0  0  0  0  0
    5.5914   71.1804   70.1468 H   0  0  0  0  0  0  0  0  0  0  0  0
    6.9211   70.5508   70.3377 H   0  0  0  0  0  0  0  0  0  0  0  0
    8.6125   70.2813   69.7963 H   0  0  0  0  0  0  0  0  0  0  0  0
    7.9229   71.9399   69.7963 H   0  0  0  0  0  0  0  0  0  0  0  0
  2  1  1  0
  3  2  2  0
  4  2  2  0
  5  2  1  0
  6  5  2  0
  7  6  1  0
  8  7  2  0
  9  8  1  0
 10  9  2  0
 10  5  1  0
 11  8  1  0
 12  1  1  0
 14 13  2  0
 15 14  1  0
 16 15  2  0
 16 12  1  0
 17 16  1  0
 18 17  2  0
 18 13  1  0
 20 13  1  0
 20 19  1  0
  6 21  1  0
  7 22  1  0
  9 23  1  0
 10 24  1  0
 11 25  1  0
 11 26  1  0
 11 27  1  0
 12 28  1  0
 12 29  1  0
 14 30  1  0
 15 31  1  0
 17 32  1  0
 18 33  1  0
 19 34  1  0
 19 35  1  0
 19 36  1  0
M  END
>  <score>  (1) 
-9.245

$$$$
=
     RDKit          3D

 36 37  0  0  0  0  0  0  0  0999 V2000
    5.6730   67.9910   63.7180 S   0  0  0  0  0  0  0  0  0  0  0  0
    4.1270   66.8460   62.9180 S   0  0  0  0  0  6  0  0  0  0  0  0
    3.9180   67.2690   61.5480 O   0  0  0  0  0  0  0  0  0  0  0  0
    4.3840   65.4580   63.2450 O   0  0  0  0  0  0  0  0  0  0  0  0
    2.7110   67.3540   63.8670 C   0  0  0  0  0  0  0  0  0  0  0  0
    1.8340   68.3160   63.3590 C   0  0  0  0  0  0  0  0  0  0  0  0
    0.7260   68.7010   64.1140 C   0  0  0  0  0  0  0  0  0  0  0  0
    0.4900   68.1320   65.3740 C   0  0  0  0  0  0  0  0  0  0  0  0
    1.3620   67.1470   65.8570 C   0  0  0  0  0  0  0  0  0  0  0  0
    2.4730   66.7550   65.1080 C   0  0  0  0  0  0  0  0  0  0  0  0
   -0.7240   68.5220   66.1650 C   0  0  0  0  0  0  0  0  0  0  0  0
    4.8020   69.4710   64.2760 C   0  0  0  0  0  0  0  0  0  0  0  0
    5.6260   70.4130   68.4170 C   0  0  0  0  0  0  0  0  0  0  0  0
    4.3350   70.0710   68.0180 C   0  0  0  0  0  0  0  0  0  0  0  0
    4.0700   69.7620   66.6780 C   0  0  0  0  0  0  0  0  0  0  0  0
    5.0930   69.7880   65.7200 C   0  0  0  0  0  0  0  0  0  0  0  0
    6.3860   70.1410   66.1270 C   0  0  0  0  0  0  0  0  0  0  0  0
    6.6460   70.4460   67.4660 C   0  0  0  0  0  0  0  0  0  0  0  0
    7.4180   70.7830   69.9330 C   0  0  0  0  0  0  0  0  0  0  0  0
    6.0180   70.7340   69.6880 O   0  0  0  0  0  0  0  0  0  0  0  0
    2.0159   68.7660   62.3719 H   0  0  0  0  0  0  0  0  0  0  0  0
    0.0319   69.4569   63.7180 H   0  0  0  0  0  0  0  0  0  0  0  0
    1.1696   66.6791   66.8338 H   0  0  0  0  0  0  0  0  0  0  0  0
    3.1553   65.9817   65.4907 H   0  0  0  0  0  0  0  0  0  0  0  0
   -0.5001   68.4501   67.2396 H   0  0  0  0  0  0  0  0  0  0  0  0
   -1.0062   69.5560   65.9176 H   0  0  0  0  0  0  0  0  0  0  0  0
   -1.5556   67.8458   65.9176 H   0  0  0  0  0  0  0  0  0  0  0  0
    5.1163   70.3230   63.6553 H   0  0  0  0  0  0  0  0  0  0  0  0
    3.7220   69.2853   64.1805 H   0  0  0  0  0  0  0  0  0  0  0  0
    3.5216   70.0437   68.7581 H   0  0  0  0  0  0  0  0  0  0  0  0
    3.0470   69.4958   66.3737 H   0  0  0  0  0  0  0  0  0  0  0  0
    7.2009   70.1784   65.3891 H   0  0  0  0  0  0  0  0  0  0  0  0
    7.6672   70.7153   67.7736 H   0  0  0  0  0  0  0  0  0  0  0  0
    7.6004   70.7894   71.0178 H   0  0  0  0  0  0  0  0  0  0  0  0
    7.8997   69.9012   69.4854 H   0  0  0  0  0  0  0  0  0  0  0  0
    7.8368   71.6964   69.4854 H   0  0  0  0  0  0  0  0  0  0  0  0
  2  1  1  0
  3  2  2  0
  4  2  2  0
  5  2  1  0
  6  5  2  0
  7  6  1  0
  8  7  2  0
  9  8  1  0
 10  9  2  0
 10  5  1  0
 11  8  1  0
 12  1  1  0
 14 13  2  0
 15 14  1  0
 16 15  2  0
 16 12  1  0
 17 16  1  0
 18 17  2  0
 18 13  1  0
 20 13  1  0
 20 19  1  0
  6 21  1  0
  7 22  1  0
  9 23  1  0
 10 24  1  0
 11 25  1  0
 11 26  1  0
 11 27  1  0
 12 28  1  0
 12 29  1  0
 14 30  1  0
 15 31  1  0
 17 32  1  0
 18 33  1  0
 19 34  1  0
 19 35  1  0
 19 36  1  0
M  END
>  <score>  (2) 
-8.893

$$$$
=
     RDKit          3D

 36 37  0  0  0  0  0  0  0  0999 V2000
    1.5520   68.8990   65.4200 S   0  0  0  0  0  0  0  0  0  0  0  0
    1.5450   69.0420   67.4990 S   0  0  0  0  0  6  0  0  0  0  0  0
    0.5740   70.0500   67.8760 O   0  0  0  0  0  0  0  0  0  0  0  0
    1.4820   67.6990   68.0390 O   0  0  0  0  0  0  0  0  0  0  0  0
    3.1640   69.6800   67.8690 C   0  0  0  0  0  0  0  0  0  0  0  0
    3.4420   70.1930   69.1380 C   0  0  0  0  0  0  0  0  0  0  0  0
    4.7190   70.6860   69.4130 C   0  0  0  0  0  0  0  0  0  0  0  0
    5.7160   70.6700   68.4280 C   0  0  0  0  0  0  0  0  0  0  0  0
    5.4300   70.1250   67.1690 C   0  0  0  0  0  0  0  0  0  0  0  0
    4.1560   69.6290   66.8850 C   0  0  0  0  0  0  0  0  0  0  0  0
    7.0970   71.1660   68.7410 C   0  0  0  0  0  0  0  0  0  0  0  0
    1.1830   67.1510   65.1570 C   0  0  0  0  0  0  0  0  0  0  0  0
    4.6370   64.9400   63.7810 C   0  0  0  0  0  0  0  0  0  0  0  0
    4.5090   66.2970   63.4890 C   0  0  0  0  0  0  0  0  0  0  0  0
    3.3930   67.0130   63.9390 C   0  0  0  0  0  0  0  0  0  0  0  0
    2.3910   66.3820   64.6890 C   0  0  0  0  0  0  0  0  0  0  0  0
    2.5220   65.0160   64.9710 C   0  0  0  0  0  0  0  0  0  0  0  0
    3.6390   64.3070   64.5230 C   0  0  0  0  0  0  0  0  0  0  0  0
    5.3990   62.7350   63.3270 C   0  0  0  0  0  0  0  0  0  0  0  0
    5.6720   64.1280   63.4050 O   0  0  0  0  0  0  0  0  0  0  0  0
    2.6621   70.2085   69.9136 H   0  0  0  0  0  0  0  0  0  0  0  0
    4.9445   71.0903   70.4109 H   0  0  0  0  0  0  0  0  0  0  0  0
    6.2147   70.0877   66.3990 H   0  0  0  0  0  0  0  0  0  0  0  0
    3.9347   69.2019   65.8958 H   0  0  0  0  0  0  0  0  0  0  0  0
    7.2309   71.2141   69.8318 H   0  0  0  0  0  0  0  0  0  0  0  0
    7.8399   70.4785   68.3104 H   0  0  0  0  0  0  0  0  0  0  0  0
    7.2327   72.1691   68.3104 H   0  0  0  0  0  0  0  0  0  0  0  0
    0.8306   66.7163   66.1040 H   0  0  0  0  0  0  0  0  0  0  0  0
    0.4125   67.0809   64.3751 H   0  0  0  0  0  0  0  0  0  0  0  0
    5.2876   66.8072   62.9029 H   0  0  0  0  0  0  0  0  0  0  0  0
    3.3016   68.0831   63.7012 H   0  0  0  0  0  0  0  0  0  0  0  0
    1.7412   64.4991   65.5482 H   0  0  0  0  0  0  0  0  0  0  0  0
    3.7331   63.2365   64.7580 H   0  0  0  0  0  0  0  0  0  0  0  0
    5.3176   62.3199   64.3424 H   0  0  0  0  0  0  0  0  0  0  0  0
    4.4527   62.5764   62.7891 H   0  0  0  0  0  0  0  0  0  0  0  0
    6.2154   62.2309   62.7891 H   0  0  0  0  0  0  0  0  0  0  0  0
  2  1  1  0
  3  2  2  0
  4  2  2  0
  5  2  1  0
  6  5  2  0
  7  6  1  0
  8  7  2  0
  9  8  1  0
 10  9  2  0
 10  5  1  0
 11  8  1  0
 12  1  1  0
 14 13  2  0
 15 14  1  0
 16 15  2  0
 16 12  1  0
 17 16  1  0
 18 17  2  0
 18 13  1  0
 20 13  1  0
 20 19  1  0
  6 21  1  0
  7 22  1  0
  9 23  1  0
 10 24  1  0
 11 25  1  0
 11 26  1  0
 11 27  1  0
 12 28  1  0
 12 29  1  0
 14 30  1  0
 15 31  1  0
 17 32  1  0
 18 33  1  0
 19 34  1  0
 19 35  1  0
 19 36  1  0
M  END
>  <score>  (3) 
-8.434

$$$$
=
     RDKit          3D

 36 37  0  0  0  0  0  0  0  0999 V2000
    3.2420   69.0000   62.9450 S   0  0  0  0  0  0  0  0  0  0  0  0
    4.9780   68.3780   63.9140 S   0  0  0  0  0  6  0  0  0  0  0  0
    4.9000   66.9430   64.0980 O   0  0  0  0  0  0  0  0  0  0  0  0
    6.1080   68.9890   63.2430 O   0  0  0  0  0  0  0  0  0  0  0  0
    4.8460   69.1410   65.5160 C   0  0  0  0  0  0  0  0  0  0  0  0
    3.6080   69.2090   66.1600 C   0  0  0  0  0  0  0  0  0  0  0  0
    3.5220   69.8070   67.4170 C   0  0  0  0  0  0  0  0  0  0  0  0
    4.6640   70.3380   68.0330 C   0  0  0  0  0  0  0  0  0  0  0  0
    5.9040   70.2360   67.3870 C   0  0  0  0  0  0  0  0  0  0  0  0
    5.9990   69.6390   66.1290 C   0  0  0  0  0  0  0  0  0  0  0  0
    4.5730   70.9460   69.4020 C   0  0  0  0  0  0  0  0  0  0  0  0
    2.1540   67.5740   63.1610 C   0  0  0  0  0  0  0  0  0  0  0  0
   -0.8270   68.2940   66.2120 C   0  0  0  0  0  0  0  0  0  0  0  0
   -0.8770   68.9880   65.0040 C   0  0  0  0  0  0  0  0  0  0  0  0
    0.0850   68.7500   64.0150 C   0  0  0  0  0  0  0  0  0  0  0  0
    1.1090   67.8150   64.2200 C   0  0  0  0  0  0  0  0  0  0  0  0
    1.1580   67.1290   65.4410 C   0  0  0  0  0  0  0  0  0  0  0  0
    0.1940   67.3660   66.4230 C   0  0  0  0  0  0  0  0  0  0  0  0
   -2.3990   67.2590   67.6630 C   0  0  0  0  0  0  0  0  0  0  0  0
   -1.7020   68.4290   67.2550 O   0  0  0  0  0  0  0  0  0  0  0  0
    2.7092   68.7946   65.6799 H   0  0  0  0  0  0  0  0  0  0  0  0
    2.5502   69.8625   67.9293 H   0  0  0  0  0  0  0  0  0  0  0  0
    6.8081   70.6291   67.8748 H   0  0  0  0  0  0  0  0  0  0  0  0
    6.9732   69.5611   65.6242 H   0  0  0  0  0  0  0  0  0  0  0  0
    4.6908   70.1589   70.1613 H   0  0  0  0  0  0  0  0  0  0  0  0
    5.3690   71.6953   69.5241 H   0  0  0  0  0  0  0  0  0  0  0  0
    3.5925   71.4294   69.5241 H   0  0  0  0  0  0  0  0  0  0  0  0
    1.6498   67.3644   62.2061 H   0  0  0  0  0  0  0  0  0  0  0  0
    2.7713   66.7217   63.4812 H   0  0  0  0  0  0  0  0  0  0  0  0
   -1.6745   69.7247   64.8273 H   0  0  0  0  0  0  0  0  0  0  0  0
    0.0366   69.3035   63.0656 H   0  0  0  0  0  0  0  0  0  0  0  0
    1.9603   66.3998   65.6269 H   0  0  0  0  0  0  0  0  0  0  0  0
    0.2398   66.8149   67.3739 H   0  0  0  0  0  0  0  0  0  0  0  0
   -2.4264   67.2129   68.7617 H   0  0  0  0  0  0  0  0  0  0  0  0
   -3.4265   67.2891   67.2715 H   0  0  0  0  0  0  0  0  0  0  0  0
   -1.8833   66.3697   67.2715 H   0  0  0  0  0  0  0  0  0  0  0  0
  2  1  1  0
  3  2  2  0
  4  2  2  0
  5  2  1  0
  6  5  2  0
  7  6  1  0
  8  7  2  0
  9  8  1  0
 10  9  2  0
 10  5  1  0
 11  8  1  0
 12  1  1  0
 14 13  2  0
 15 14  1  0
 16 15  2  0
 16 12  1  0
 17 16  1  0
 18 17  2  0
 18 13  1  0
 20 13  1  0
 20 19  1  0
  6 21  1  0
  7 22  1  0
  9 23  1  0
 10 24  1  0
 11 25  1  0
 11 26  1  0
 11 27  1  0
 12 28  1  0
 12 29  1  0
 14 30  1  0
 15 31  1  0
 17 32  1  0
 18 33  1  0
 19 34  1  0
 19 35  1  0
 19 36  1  0
M  END
>  <score>  (4) 
-7.883

$$$$
=
     RDKit          3D

 36 37  0  0  0  0  0  0  0  0999 V2000
    4.6490   67.6540   64.4920 S   0  0  0  0  0  0  0  0  0  0  0  0
    2.6930   67.0000   64.7940 S   0  0  0  0  0  6  0  0  0  0  0  0
    2.6160   65.6130   64.3800 O   0  0  0  0  0  0  0  0  0  0  0  0
    2.2850   67.4110   66.1220 O   0  0  0  0  0  0  0  0  0  0  0  0
    1.7560   67.9680   63.6330 C   0  0  0  0  0  0  0  0  0  0  0  0
    0.4540   68.3680   63.9440 C   0  0  0  0  0  0  0  0  0  0  0  0
   -0.2660   69.1310   63.0240 C   0  0  0  0  0  0  0  0  0  0  0  0
    0.3060   69.4940   61.7970 C   0  0  0  0  0  0  0  0  0  0  0  0
    1.6230   69.1100   61.5120 C   0  0  0  0  0  0  0  0  0  0  0  0
    2.3510   68.3470   62.4270 C   0  0  0  0  0  0  0  0  0  0  0  0
   -0.4600   70.3460   60.8270 C   0  0  0  0  0  0  0  0  0  0  0  0
    4.5080   69.4290   64.7970 C   0  0  0  0  0  0  0  0  0  0  0  0
    5.9060   70.5490   68.7340 C   0  0  0  0  0  0  0  0  0  0  0  0
    4.5510   70.3140   68.5110 C   0  0  0  0  0  0  0  0  0  0  0  0
    4.1000   69.9470   67.2370 C   0  0  0  0  0  0  0  0  0  0  0  0
    4.9980   69.8080   66.1710 C   0  0  0  0  0  0  0  0  0  0  0  0
    6.3580   70.0550   66.4010 C   0  0  0  0  0  0  0  0  0  0  0  0
    6.8040   70.4170   67.6740 C   0  0  0  0  0  0  0  0  0  0  0  0
    7.8970   70.9270   69.9760 C   0  0  0  0  0  0  0  0  0  0  0  0
    6.4760   70.9110   69.9240 O   0  0  0  0  0  0  0  0  0  0  0  0
    0.0007   68.0841   64.9052 H   0  0  0  0  0  0  0  0  0  0  0  0
   -1.2910   69.4503   63.2637 H   0  0  0  0  0  0  0  0  0  0  0  0
    2.0865   69.4117   60.5611 H   0  0  0  0  0  0  0  0  0  0  0  0
    3.3846   68.0467   62.2002 H   0  0  0  0  0  0  0  0  0  0  0  0
   -1.0951   71.0524   61.3816 H   0  0  0  0  0  0  0  0  0  0  0  0
    0.2448   70.9054   60.1943 H   0  0  0  0  0  0  0  0  0  0  0  0
   -1.0910   69.7045   60.1943 H   0  0  0  0  0  0  0  0  0  0  0  0
    5.1058   69.9666   64.0463 H   0  0  0  0  0  0  0  0  0  0  0  0
    3.4444   69.7013   64.7292 H   0  0  0  0  0  0  0  0  0  0  0  0
    3.8332   70.4170   69.3381 H   0  0  0  0  0  0  0  0  0  0  0  0
    3.0277   69.7657   67.0714 H   0  0  0  0  0  0  0  0  0  0  0  0
    7.0781   69.9633   65.5746 H   0  0  0  0  0  0  0  0  0  0  0  0
    7.8754   70.6002   67.8430 H   0  0  0  0  0  0  0  0  0  0  0  0
    8.2255   70.9307   71.0258 H   0  0  0  0  0  0  0  0  0  0  0  0
    8.2925   70.0333   69.4712 H   0  0  0  0  0  0  0  0  0  0  0  0
    8.2722   71.8294   69.4712 H   0  0  0  0  0  0  0  0  0  0  0  0
  2  1  1  0
  3  2  2  0
  4  2  2  0
  5  2  1  0
  6  5  2  0
  7  6  1  0
  8  7  2  0
  9  8  1  0
 10  9  2  0
 10  5  1  0
 11  8  1  0
 12  1  1  0
 14 13  2  0
 15 14  1  0
 16 15  2  0
 16 12  1  0
 17 16  1  0
 18 17  2  0
 18 13  1  0
 20 13  1  0
 20 19  1  0
  6 21  1  0
  7 22  1  0
  9 23  1  0
 10 24  1  0
 11 25  1  0
 11 26  1  0
 11 27  1  0
 12 28  1  0
 12 29  1  0
 14 30  1  0
 15 31  1  0
 17 32  1  0
 18 33  1  0
 19 34  1  0
 19 35  1  0
 19 36  1  0
M  END
>  <score>  (5) 
-7.804

$$$$
=
     RDKit          3D

 36 37  0  0  0  0  0  0  0  0999 V2000
    0.8560   69.0830   65.5570 S   0  0  0  0  0  0  0  0  0  0  0  0
    1.1980   68.4720   63.5940 S   0  0  0  0  0  6  0  0  0  0  0  0
   -0.0400   67.9280   63.0720 O   0  0  0  0  0  0  0  0  0  0  0  0
    1.8970   69.5400   62.9090 O   0  0  0  0  0  0  0  0  0  0  0  0
    2.3480   67.1280   63.7810 C   0  0  0  0  0  0  0  0  0  0  0  0
    1.9960   66.0040   64.5330 C   0  0  0  0  0  0  0  0  0  0  0  0
    2.9090   64.9560   64.6660 C   0  0  0  0  0  0  0  0  0  0  0  0
    4.1680   65.0260   64.0550 C   0  0  0  0  0  0  0  0  0  0  0  0
    4.4950   66.1480   63.2800 C   0  0  0  0  0  0  0  0  0  0  0  0
    3.5880   67.2000   63.1410 C   0  0  0  0  0  0  0  0  0  0  0  0
    5.1310   63.8800   64.1700 C   0  0  0  0  0  0  0  0  0  0  0  0
    2.1440   68.1980   66.4620 C   0  0  0  0  0  0  0  0  0  0  0  0
    5.3790   70.7900   67.6970 C   0  0  0  0  0  0  0  0  0  0  0  0
    5.4300   70.1430   66.4640 C   0  0  0  0  0  0  0  0  0  0  0  0
    4.3800   69.3080   66.0630 C   0  0  0  0  0  0  0  0  0  0  0  0
    3.2650   69.1100   66.8890 C   0  0  0  0  0  0  0  0  0  0  0  0
    3.2250   69.7570   68.1310 C   0  0  0  0  0  0  0  0  0  0  0  0
    4.2730   70.5920   68.5250 C   0  0  0  0  0  0  0  0  0  0  0  0
    7.2860   71.0550   69.0910 C   0  0  0  0  0  0  0  0  0  0  0  0
    6.3320   71.6300   68.2060 O   0  0  0  0  0  0  0  0  0  0  0  0
    1.0092   65.9454   65.0155 H   0  0  0  0  0  0  0  0  0  0  0  0
    2.6376   64.0678   65.2555 H   0  0  0  0  0  0  0  0  0  0  0  0
    5.4726   66.1995   62.7783 H   0  0  0  0  0  0  0  0  0  0  0  0
    3.8474   68.0788   62.5324 H   0  0  0  0  0  0  0  0  0  0  0  0
    5.3151   63.6609   65.2321 H   0  0  0  0  0  0  0  0  0  0  0  0
    4.7041   62.9919   63.6811 H   0  0  0  0  0  0  0  0  0  0  0  0
    6.0794   64.1475   63.6811 H   0  0  0  0  0  0  0  0  0  0  0  0
    1.6980   67.7408   67.3576 H   0  0  0  0  0  0  0  0  0  0  0  0
    2.5652   67.4342   65.7918 H   0  0  0  0  0  0  0  0  0  0  0  0
    6.2977   70.2886   65.8037 H   0  0  0  0  0  0  0  0  0  0  0  0
    4.4307   68.8013   65.0880 H   0  0  0  0  0  0  0  0  0  0  0  0
    2.3641   69.6067   68.7990 H   0  0  0  0  0  0  0  0  0  0  0  0
    4.2261   71.0997   69.4997 H   0  0  0  0  0  0  0  0  0  0  0  0
    6.9793   71.2398   70.1311 H   0  0  0  0  0  0  0  0  0  0  0  0
    7.3445   69.9711   68.9131 H   0  0  0  0  0  0  0  0  0  0  0  0
    8.2718   71.5095   68.9131 H   0  0  0  0  0  0  0  0  0  0  0  0
  2  1  1  0
  3  2  2  0
  4  2  2  0
  5  2  1  0
  6  5  2  0
  7  6  1  0
  8  7  2  0
  9  8  1  0
 10  9  2  0
 10  5  1  0
 11  8  1  0
 12  1  1  0
 14 13  2  0
 15 14  1  0
 16 15  2  0
 16 12  1  0
 17 16  1  0
 18 17  2  0
 18 13  1  0
 20 13  1  0
 20 19  1  0
  6 21  1  0
  7 22  1  0
  9 23  1  0
 10 24  1  0
 11 25  1  0
 11 26  1  0
 11 27  1  0
 12 28  1  0
 12 29  1  0
 14 30  1  0
 15 31  1  0
 17 32  1  0
 18 33  1  0
 19 34  1  0
 19 35  1  0
 19 36  1  0
M  END
>  <score>  (6) 
-7.642

$$$$
=
     RDKit          3D

 36 37  0  0  0  0  0  0  0  0999 V2000
    1.2060   66.9090   67.9930 S   0  0  0  0  0  0  0  0  0  0  0  0
    1.6590   68.9410   67.8890 S   0  0  0  0  0  6  0  0  0  0  0  0
    0.4410   69.6550   67.5640 O   0  0  0  0  0  0  0  0  0  0  0  0
    2.4430   69.2840   69.0580 O   0  0  0  0  0  0  0  0  0  0  0  0
    2.7440   69.0450   66.4830 C   0  0  0  0  0  0  0  0  0  0  0  0
    2.2880   68.6680   65.2170 C   0  0  0  0  0  0  0  0  0  0  0  0
    3.1510   68.7590   64.1240 C   0  0  0  0  0  0  0  0  0  0  0  0
    4.4640   69.2220   64.2880 C   0  0  0  0  0  0  0  0  0  0  0  0
    4.8960   69.6240   65.5590 C   0  0  0  0  0  0  0  0  0  0  0  0
    4.0400   69.5370   66.6590 C   0  0  0  0  0  0  0  0  0  0  0  0
    5.3740   69.3540   63.1030 C   0  0  0  0  0  0  0  0  0  0  0  0
    0.4970   66.7610   69.6470 C   0  0  0  0  0  0  0  0  0  0  0  0
    1.9630   63.2540   71.7120 C   0  0  0  0  0  0  0  0  0  0  0  0
    2.7600   63.8950   70.7650 C   0  0  0  0  0  0  0  0  0  0  0  0
    2.2860   65.0330   70.1000 C   0  0  0  0  0  0  0  0  0  0  0  0
    1.0110   65.5460   70.3760 C   0  0  0  0  0  0  0  0  0  0  0  0
    0.2130   64.8910   71.3230 C   0  0  0  0  0  0  0  0  0  0  0  0
    0.6910   63.7580   71.9860 C   0  0  0  0  0  0  0  0  0  0  0  0
    1.5860   60.9480   72.1420 C   0  0  0  0  0  0  0  0  0  0  0  0
    2.3040   62.1410   72.4310 O   0  0  0  0  0  0  0  0  0  0  0  0
    1.2589   68.3031   65.0833 H   0  0  0  0  0  0  0  0  0  0  0  0
    2.7977   68.4647   63.1247 H   0  0  0  0  0  0  0  0  0  0  0  0
    5.9171   70.0110   65.6913 H   0  0  0  0  0  0  0  0  0  0  0  0
    4.3830   69.8530   67.6553 H   0  0  0  0  0  0  0  0  0  0  0  0
    6.4073   69.5039   63.4491 H   0  0  0  0  0  0  0  0  0  0  0  0
    5.3200   68.4386   62.4954 H   0  0  0  0  0  0  0  0  0  0  0  0
    5.0621   70.2163   62.4954 H   0  0  0  0  0  0  0  0  0  0  0  0
    0.7572   67.6591   70.2264 H   0  0  0  0  0  0  0  0  0  0  0  0
   -0.5930   66.6573   69.5410 H   0  0  0  0  0  0  0  0  0  0  0  0
    3.7639   63.5061   70.5393 H   0  0  0  0  0  0  0  0  0  0  0  0
    2.9217   65.5300   69.3524 H   0  0  0  0  0  0  0  0  0  0  0  0
   -0.7951   65.2707   71.5457 H   0  0  0  0  0  0  0  0  0  0  0  0
    0.0572   63.2574   72.7328 H   0  0  0  0  0  0  0  0  0  0  0  0
    1.2922   60.4598   73.0829 H   0  0  0  0  0  0  0  0  0  0  0  0
    0.6857   61.1938   71.5598 H   0  0  0  0  0  0  0  0  0  0  0  0
    2.2247   60.2676   71.5598 H   0  0  0  0  0  0  0  0  0  0  0  0
  2  1  1  0
  3  2  2  0
  4  2  2  0
  5  2  1  0
  6  5  2  0
  7  6  1  0
  8  7  2  0
  9  8  1  0
 10  9  2  0
 10  5  1  0
 11  8  1  0
 12  1  1  0
 14 13  2  0
 15 14  1  0
 16 15  2  0
 16 12  1  0
 17 16  1  0
 18 17  2  0
 18 13  1  0
 20 13  1  0
 20 19  1  0
  6 21  1  0
  7 22  1  0
  9 23  1  0
 10 24  1  0
 11 25  1  0
 11 26  1  0
 11 27  1  0
 12 28  1  0
 12 29  1  0
 14 30  1  0
 15 31  1  0
 17 32  1  0
 18 33  1  0
 19 34  1  0
 19 35  1  0
 19 36  1  0
M  END
>  <score>  (7) 
-7.605

$$$$
=
     RDKit          3D

 36 37  0  0  0  0  0  0  0  0999 V2000
    4.0260   59.5990   72.6700 S   0  0  0  0  0  0  0  0  0  0  0  0
    4.4590   60.1850   70.7180 S   0  0  0  0  0  6  0  0  0  0  0  0
    5.8820   60.4460   70.6330 O   0  0  0  0  0  0  0  0  0  0  0  0
    3.8120   59.2510   69.8180 O   0  0  0  0  0  0  0  0  0  0  0  0
    3.6080   61.7390   70.5610 C   0  0  0  0  0  0  0  0  0  0  0  0
    4.2180   62.9190   70.9950 C   0  0  0  0  0  0  0  0  0  0  0  0
    3.5380   64.1300   70.8610 C   0  0  0  0  0  0  0  0  0  0  0  0
    2.2550   64.1690   70.2980 C   0  0  0  0  0  0  0  0  0  0  0  0
    1.6690   62.9800   69.8410 C   0  0  0  0  0  0  0  0  0  0  0  0
    2.3410   61.7640   69.9710 C   0  0  0  0  0  0  0  0  0  0  0  0
    1.5450   65.4790   70.1220 C   0  0  0  0  0  0  0  0  0  0  0  0
    2.2310   59.4050   72.6220 C   0  0  0  0  0  0  0  0  0  0  0  0
    0.1790   63.0700   73.6530 C   0  0  0  0  0  0  0  0  0  0  0  0
   -0.4820   62.0730   72.9380 C   0  0  0  0  0  0  0  0  0  0  0  0
    0.1820   60.8840   72.6090 C   0  0  0  0  0  0  0  0  0  0  0  0
    1.5140   60.6770   72.9920 C   0  0  0  0  0  0  0  0  0  0  0  0
    2.1750   61.6880   73.7020 C   0  0  0  0  0  0  0  0  0  0  0  0
    1.5080   62.8710   74.0320 C   0  0  0  0  0  0  0  0  0  0  0  0
   -0.2360   64.6110   75.4150 C   0  0  0  0  0  0  0  0  0  0  0  0
   -0.3510   64.2710   74.0380 O   0  0  0  0  0  0  0  0  0  0  0  0
    5.2245   62.8934   71.4380 H   0  0  0  0  0  0  0  0  0  0  0  0
    4.0130   65.0624   71.2002 H   0  0  0  0  0  0  0  0  0  0  0  0
    0.6722   63.0060   69.3766 H   0  0  0  0  0  0  0  0  0  0  0  0
    1.8777   60.8331   69.6123 H   0  0  0  0  0  0  0  0  0  0  0  0
    1.3135   65.9061   71.1089 H   0  0  0  0  0  0  0  0  0  0  0  0
    2.1901   66.1736   69.5640 H   0  0  0  0  0  0  0  0  0  0  0  0
    0.6108   65.3177   69.5640 H   0  0  0  0  0  0  0  0  0  0  0  0
    1.9328   59.1128   71.6043 H   0  0  0  0  0  0  0  0  0  0  0  0
    1.9537   58.6339   73.3558 H   0  0  0  0  0  0  0  0  0  0  0  0
   -1.5280   62.2200   72.6311 H   0  0  0  0  0  0  0  0  0  0  0  0
   -0.3485   60.1038   72.0434 H   0  0  0  0  0  0  0  0  0  0  0  0
    3.2245   61.5499   74.0013 H   0  0  0  0  0  0  0  0  0  0  0  0
    2.0358   63.6538   74.5965 H   0  0  0  0  0  0  0  0  0  0  0  0
   -0.5279   63.7480   76.0314 H   0  0  0  0  0  0  0  0  0  0  0  0
    0.8052   64.8862   75.6390 H   0  0  0  0  0  0  0  0  0  0  0  0
   -0.8964   65.4617   75.6390 H   0  0  0  0  0  0  0  0  0  0  0  0
  2  1  1  0
  3  2  2  0
  4  2  2  0
  5  2  1  0
  6  5  2  0
  7  6  1  0
  8  7  2  0
  9  8  1  0
 10  9  2  0
 10  5  1  0
 11  8  1  0
 12  1  1  0
 14 13  2  0
 15 14  1  0
 16 15  2  0
 16 12  1  0
 17 16  1  0
 18 17  2  0
 18 13  1  0
 20 13  1  0
 20 19  1  0
  6 21  1  0
  7 22  1  0
  9 23  1  0
 10 24  1  0
 11 25  1  0
 11 26  1  0
 11 27  1  0
 12 28  1  0
 12 29  1  0
 14 30  1  0
 15 31  1  0
 17 32  1  0
 18 33  1  0
 19 34  1  0
 19 35  1  0
 19 36  1  0
M  END
>  <score>  (8) 
-7.533

$$$$
=
     RDKit          3D

 36 37  0  0  0  0  0  0  0  0999 V2000
    0.3430   64.7520   70.4740 S   0  0  0  0  0  0  0  0  0  0  0  0
    1.9130   63.3840   70.5320 S   0  0  0  0  0  6  0  0  0  0  0  0
    2.1090   62.8710   69.1900 O   0  0  0  0  0  0  0  0  0  0  0  0
    3.0040   63.9870   71.2710 O   0  0  0  0  0  0  0  0  0  0  0  0
    1.2670   62.0640   71.5330 C   0  0  0  0  0  0  0  0  0  0  0  0
    2.0330   60.9170   71.7600 C   0  0  0  0  0  0  0  0  0  0  0  0
    1.5130   59.8920   72.5510 C   0  0  0  0  0  0  0  0  0  0  0  0
    0.2340   60.0060   73.1140 C   0  0  0  0  0  0  0  0  0  0  0  0
   -0.5100   61.1750   72.9010 C   0  0  0  0  0  0  0  0  0  0  0  0
    0.0030   62.2050   72.1120 C   0  0  0  0  0  0  0  0  0  0  0  0
   -0.3050   58.9170   73.9950 C   0  0  0  0  0  0  0  0  0  0  0  0
    1.1750   66.2660   69.9470 C   0  0  0  0  0  0  0  0  0  0  0  0
   -0.7890   68.1250   66.5710 C   0  0  0  0  0  0  0  0  0  0  0  0
    0.5450   68.4140   66.8530 C   0  0  0  0  0  0  0  0  0  0  0  0
    1.1810   67.8080   67.9440 C   0  0  0  0  0  0  0  0  0  0  0  0
    0.4920   66.9040   68.7640 C   0  0  0  0  0  0  0  0  0  0  0  0
   -0.8510   66.6260   68.4790 C   0  0  0  0  0  0  0  0  0  0  0  0
   -1.4800   67.2300   67.3880 C   0  0  0  0  0  0  0  0  0  0  0  0
   -2.9280   68.7550   65.7480 C   0  0  0  0  0  0  0  0  0  0  0  0
   -1.5250   68.6450   65.5410 O   0  0  0  0  0  0  0  0  0  0  0  0
    3.0364   60.8234   71.3191 H   0  0  0  0  0  0  0  0  0  0  0  0
    2.1112   58.9873   72.7344 H   0  0  0  0  0  0  0  0  0  0  0  0
   -1.5046   61.2808   73.3589 H   0  0  0  0  0  0  0  0  0  0  0  0
   -0.5831   63.1211   71.9470 H   0  0  0  0  0  0  0  0  0  0  0  0
   -0.1666   59.1966   75.0498 H   0  0  0  0  0  0  0  0  0  0  0  0
   -1.3766   58.7766   73.7904 H   0  0  0  0  0  0  0  0  0  0  0  0
    0.2332   57.9797   73.7904 H   0  0  0  0  0  0  0  0  0  0  0  0
    1.1764   66.9800   70.7837 H   0  0  0  0  0  0  0  0  0  0  0  0
    2.1999   66.0031   69.6462 H   0  0  0  0  0  0  0  0  0  0  0  0
    1.0997   69.1197   66.2172 H   0  0  0  0  0  0  0  0  0  0  0  0
    2.2334   68.0443   68.1597 H   0  0  0  0  0  0  0  0  0  0  0  0
   -1.4130   65.9286   69.1176 H   0  0  0  0  0  0  0  0  0  0  0  0
   -2.5328   66.9972   67.1704 H   0  0  0  0  0  0  0  0  0  0  0  0
   -3.1392   68.7716   66.8274 H   0  0  0  0  0  0  0  0  0  0  0  0
   -3.2947   69.6847   65.2883 H   0  0  0  0  0  0  0  0  0  0  0  0
   -3.4351   67.8939   65.2883 H   0  0  0  0  0  0  0  0  0  0  0  0
  2  1  1  0
  3  2  2  0
  4  2  2  0
  5  2  1  0
  6  5  2  0
  7  6  1  0
  8  7  2  0
  9  8  1  0
 10  9  2  0
 10  5  1  0
 11  8  1  0
 12  1  1  0
 14 13  2  0
 15 14  1  0
 16 15  2  0
 16 12  1  0
 17 16  1  0
 18 17  2  0
 18 13  1  0
 20 13  1  0
 20 19  1  0
  6 21  1  0
  7 22  1  0
  9 23  1  0
 10 24  1  0
 11 25  1  0
 11 26  1  0
 11 27  1  0
 12 28  1  0
 12 29  1  0
 14 30  1  0
 15 31  1  0
 17 32  1  0
 18 33  1  0
 19 34  1  0
 19 35  1  0
 19 36  1  0
M  END
>  <score>  (9) 
-7.521

$$$$
