=
     RDKit          3D

 60 59  0  0  0  0  0  0  0  0999 V2000
    2.2080   64.2540   70.5190 C   0  0  0  0  0  0  0  0  0  0  0  0
    0.8200   64.6990   70.9910 C   0  0  0  0  0  0  0  0  0  0  0  0
    0.2730   65.9730   70.3410 C   0  0  0  0  0  0  0  0  0  0  0  0
    1.3570   66.8390   69.6920 C   0  0  0  0  0  0  0  0  0  0  0  0
    0.8540   67.5460   68.4330 C   0  0  0  0  0  0  0  0  0  0  0  0
    1.2580   66.8480   67.2460 O   0  0  0  0  0  0  0  0  0  0  0  0
    1.2860   67.5880   66.1110 C   0  0  0  0  0  0  0  0  0  0  0  0
    0.3530   67.7450   65.3400 O   0  0  0  0  0  0  0  0  0  0  0  0
    2.5290   68.1250   65.9690 N   0  0  0  0  0  0  0  0  0  0  0  0
    2.9210   68.9030   64.8160 C   0  0  0  0  0  0  0  0  0  0  0  0
    4.3370   69.4550   64.9700 C   0  0  0  0  0  0  0  0  0  0  0  0
    4.8000   69.5360   66.4260 C   0  0  0  0  0  0  0  0  0  0  0  0
    5.9930   70.4540   66.6320 C   0  0  0  0  0  0  0  0  0  0  0  0
    2.2810   62.8640   69.8800 C   0  0  0  0  0  0  0  0  0  0  0  0
    3.6950   62.4700   69.4400 C   0  0  0  0  0  0  0  0  0  0  0  0
    4.6060   62.1740   70.6300 C   0  0  0  0  0  0  0  0  0  0  0  0
    5.0840   60.8210   70.5980 O   0  0  0  0  0  0  0  0  0  0  0  0
    3.3930   60.0880   71.8140 N   0  0  0  0  0  0  0  0  0  0  0  0
    4.1340   59.8610   70.6950 C   0  0  0  0  0  0  0  0  0  0  0  0
    3.9650   58.9420   69.9080 O   0  0  0  0  0  0  0  0  0  0  0  0
    2.2410   59.2910   72.1700 C   0  0  0  0  0  0  0  0  0  0  0  0
    1.4630   59.9200   73.3250 C   0  0  0  0  0  0  0  0  0  0  0  0
   -0.4220   61.4740   72.5910 C   0  0  0  0  0  0  0  0  0  0  0  0
    1.0250   61.3590   73.0460 C   0  0  0  0  0  0  0  0  0  0  0  0
    2.5629   64.9852   69.7778 H   0  0  0  0  0  0  0  0  0  0  0  0
    2.8283   64.1988   71.4257 H   0  0  0  0  0  0  0  0  0  0  0  0
    0.1138   63.8824   70.7803 H   0  0  0  0  0  0  0  0  0  0  0  0
    0.9280   64.9315   72.0607 H   0  0  0  0  0  0  0  0  0  0  0  0
   -0.4532   65.6851   69.5666 H   0  0  0  0  0  0  0  0  0  0  0  0
   -0.1868   66.5733   71.1399 H   0  0  0  0  0  0  0  0  0  0  0  0
    1.6855   67.5980   70.4173 H   0  0  0  0  0  0  0  0  0  0  0  0
    2.1870   66.1788   69.4000 H   0  0  0  0  0  0  0  0  0  0  0  0
   -0.2445   67.5942   68.4639 H   0  0  0  0  0  0  0  0  0  0  0  0
    1.2875   68.5566   68.4058 H   0  0  0  0  0  0  0  0  0  0  0  0
    3.2205   67.9699   66.7164 H   0  0  0  0  0  0  0  0  0  0  0  0
    2.8819   68.2628   63.9224 H   0  0  0  0  0  0  0  0  0  0  0  0
    2.2277   69.7516   64.7195 H   0  0  0  0  0  0  0  0  0  0  0  0
    5.0287   68.8003   64.4196 H   0  0  0  0  0  0  0  0  0  0  0  0
    4.3319   70.4806   64.5722 H   0  0  0  0  0  0  0  0  0  0  0  0
    3.9645   69.9084   67.0369 H   0  0  0  0  0  0  0  0  0  0  0  0
    5.1149   68.5245   66.7223 H   0  0  0  0  0  0  0  0  0  0  0  0
    6.1695   70.5898   67.7092 H   0  0  0  0  0  0  0  0  0  0  0  0
    6.8844   70.0066   66.1680 H   0  0  0  0  0  0  0  0  0  0  0  0
    5.7889   71.4302   66.1680 H   0  0  0  0  0  0  0  0  0  0  0  0
    1.9249   62.1244   70.6123 H   0  0  0  0  0  0  0  0  0  0  0  0
    1.6547   62.8888   68.9760 H   0  0  0  0  0  0  0  0  0  0  0  0
    3.6325   61.5711   68.8090 H   0  0  0  0  0  0  0  0  0  0  0  0
    4.1257   63.3173   68.8864 H   0  0  0  0  0  0  0  0  0  0  0  0
    5.4665   62.8586   70.6013 H   0  0  0  0  0  0  0  0  0  0  0  0
    4.0263   62.3153   71.5541 H   0  0  0  0  0  0  0  0  0  0  0  0
    3.6656   60.8630   72.4353 H   0  0  0  0  0  0  0  0  0  0  0  0
    1.5789   59.2085   71.2955 H   0  0  0  0  0  0  0  0  0  0  0  0
    2.5920   58.2985   72.4890 H   0  0  0  0  0  0  0  0  0  0  0  0
    0.5658   59.3122   73.5137 H   0  0  0  0  0  0  0  0  0  0  0  0
    2.1357   59.9467   74.1950 H   0  0  0  0  0  0  0  0  0  0  0  0
   -1.0800   61.5263   73.4709 H   0  0  0  0  0  0  0  0  0  0  0  0
   -0.5450   62.3848   71.9865 H   0  0  0  0  0  0  0  0  0  0  0  0
   -0.6873   60.5941   71.9865 H   0  0  0  0  0  0  0  0  0  0  0  0
    1.1479   61.9457   73.9683 H   0  0  0  0  0  0  0  0  0  0  0  0
    1.6536   61.7359   72.2258 H   0  0  0  0  0  0  0  0  0  0  0  0
  2  1  1  0
  3  2  1  0
  4  3  1  0
  5  4  1  0
  6  5  1  0
  7  6  1  0
  8  7  2  0
  9  7  1  0
 10  9  1  0
 11 10  1  0
 12 11  1  0
 13 12  1  0
 14  1  1  0
 15 14  1  0
 16 15  1  0
 17 16  1  0
 19 17  1  0
 19 18  1  0
 20 19  2  0
 21 18  1  0
 22 21  1  0
 24 22  1  0
 24 23  1  0
  1 25  1  0
  1 26  1  0
  2 27  1  0
  2 28  1  0
  3 29  1  0
  3 30  1  0
  4 31  1  0
  4 32  1  0
  5 33  1  0
  5 34  1  0
  9 35  1  0
 10 36  1  0
 10 37  1  0
 11 38  1  0
 11 39  1  0
 12 40  1  0
 12 41  1  0
 13 42  1  0
 13 43  1  0
 13 44  1  0
 14 45  1  0
 14 46  1  0
 15 47  1  0
 15 48  1  0
 16 49  1  0
 16 50  1  0
 18 51  1  0
 21 52  1  0
 21 53  1  0
 22 54  1  0
 22 55  1  0
 23 56  1  0
 23 57  1  0
 23 58  1  0
 24 59  1  0
 24 60  1  0
M  END
>  <score>  (1) 
-6.814

$$$$
=
     RDKit          3D

 60 59  0  0  0  0  0  0  0  0999 V2000
    3.3630   70.3430   69.1480 C   0  0  0  0  0  0  0  0  0  0  0  0
    4.5360   71.2770   68.8320 C   0  0  0  0  0  0  0  0  0  0  0  0
    5.8450   70.5910   68.4320 C   0  0  0  0  0  0  0  0  0  0  0  0
    6.1750   70.7310   66.9420 C   0  0  0  0  0  0  0  0  0  0  0  0
    5.8080   69.4770   66.1500 C   0  0  0  0  0  0  0  0  0  0  0  0
    5.0920   69.8070   64.9510 O   0  0  0  0  0  0  0  0  0  0  0  0
    4.8260   68.7690   64.1210 C   0  0  0  0  0  0  0  0  0  0  0  0
    5.4830   68.4540   63.1420 O   0  0  0  0  0  0  0  0  0  0  0  0
    3.7010   68.1370   64.5560 N   0  0  0  0  0  0  0  0  0  0  0  0
    3.0950   67.0350   63.8450 C   0  0  0  0  0  0  0  0  0  0  0  0
    2.6120   65.9500   64.8050 C   0  0  0  0  0  0  0  0  0  0  0  0
    3.4290   64.6600   64.7210 C   0  0  0  0  0  0  0  0  0  0  0  0
    4.6330   64.7640   63.7990 C   0  0  0  0  0  0  0  0  0  0  0  0
    2.7770   69.5810   67.9550 C   0  0  0  0  0  0  0  0  0  0  0  0
    1.2470   69.6320   67.8930 C   0  0  0  0  0  0  0  0  0  0  0  0
    0.6600   68.4290   67.1550 C   0  0  0  0  0  0  0  0  0  0  0  0
    1.1460   67.1940   67.7000 O   0  0  0  0  0  0  0  0  0  0  0  0
    1.0590   66.1220   69.6300 N   0  0  0  0  0  0  0  0  0  0  0  0
    0.3210   66.5760   68.5800 C   0  0  0  0  0  0  0  0  0  0  0  0
   -0.8870   66.4470   68.4540 O   0  0  0  0  0  0  0  0  0  0  0  0
    0.4710   65.4860   70.7870 C   0  0  0  0  0  0  0  0  0  0  0  0
    1.2930   64.2800   71.2380 C   0  0  0  0  0  0  0  0  0  0  0  0
    2.7360   62.8360   69.7080 C   0  0  0  0  0  0  0  0  0  0  0  0
    2.6190   64.1370   70.4870 C   0  0  0  0  0  0  0  0  0  0  0  0
    3.7099   69.6026   69.8838 H   0  0  0  0  0  0  0  0  0  0  0  0
    2.5542   70.9926   69.5139 H   0  0  0  0  0  0  0  0  0  0  0  0
    4.2315   71.9326   68.0029 H   0  0  0  0  0  0  0  0  0  0  0  0
    4.7529   71.8115   69.7686 H   0  0  0  0  0  0  0  0  0  0  0  0
    6.6647   71.0375   69.0141 H   0  0  0  0  0  0  0  0  0  0  0  0
    5.7252   69.5172   68.6385 H   0  0  0  0  0  0  0  0  0  0  0  0
    5.6144   71.5848   66.5336 H   0  0  0  0  0  0  0  0  0  0  0  0
    7.2604   70.8838   66.8491 H   0  0  0  0  0  0  0  0  0  0  0  0
    6.7300   68.9411   65.8804 H   0  0  0  0  0  0  0  0  0  0  0  0
    5.1606   68.8474   66.7781 H   0  0  0  0  0  0  0  0  0  0  0  0
    3.2627   68.4589   65.4307 H   0  0  0  0  0  0  0  0  0  0  0  0
    2.2369   67.4101   63.2680 H   0  0  0  0  0  0  0  0  0  0  0  0
    3.8517   66.5954   63.1785 H   0  0  0  0  0  0  0  0  0  0  0  0
    2.6774   66.3383   65.8321 H   0  0  0  0  0  0  0  0  0  0  0  0
    1.5790   65.7003   64.5210 H   0  0  0  0  0  0  0  0  0  0  0  0
    3.7845   64.4066   65.7307 H   0  0  0  0  0  0  0  0  0  0  0  0
    2.7685   63.8851   64.3046 H   0  0  0  0  0  0  0  0  0  0  0  0
    5.5502   64.8432   64.4011 H   0  0  0  0  0  0  0  0  0  0  0  0
    4.6874   63.8672   63.1643 H   0  0  0  0  0  0  0  0  0  0  0  0
    4.5328   65.6568   63.1643 H   0  0  0  0  0  0  0  0  0  0  0  0
    3.1784   70.0199   67.0296 H   0  0  0  0  0  0  0  0  0  0  0  0
    3.0624   68.5251   68.0720 H   0  0  0  0  0  0  0  0  0  0  0  0
    0.8509   69.6462   68.9191 H   0  0  0  0  0  0  0  0  0  0  0  0
    0.9609   70.5398   67.3415 H   0  0  0  0  0  0  0  0  0  0  0  0
   -0.4360   68.4535   67.2451 H   0  0  0  0  0  0  0  0  0  0  0  0
    0.9657   68.4865   66.0999 H   0  0  0  0  0  0  0  0  0  0  0  0
    2.0821   66.2369   69.5985 H   0  0  0  0  0  0  0  0  0  0  0  0
    0.4229   66.2143   71.6100 H   0  0  0  0  0  0  0  0  0  0  0  0
   -0.5361   65.1366   70.5156 H   0  0  0  0  0  0  0  0  0  0  0  0
    1.5092   64.3863   72.3113 H   0  0  0  0  0  0  0  0  0  0  0  0
    0.6976   63.3805   71.0226 H   0  0  0  0  0  0  0  0  0  0  0  0
    2.8118   61.9933   70.4109 H   0  0  0  0  0  0  0  0  0  0  0  0
    1.8459   62.7064   69.0748 H   0  0  0  0  0  0  0  0  0  0  0  0
    3.6350   62.8673   69.0748 H   0  0  0  0  0  0  0  0  0  0  0  0
    2.7118   64.9754   69.7810 H   0  0  0  0  0  0  0  0  0  0  0  0
    3.4201   64.1367   71.2408 H   0  0  0  0  0  0  0  0  0  0  0  0
  2  1  1  0
  3  2  1  0
  4  3  1  0
  5  4  1  0
  6  5  1  0
  7  6  1  0
  8  7  2  0
  9  7  1  0
 10  9  1  0
 11 10  1  0
 12 11  1  0
 13 12  1  0
 14  1  1  0
 15 14  1  0
 16 15  1  0
 17 16  1  0
 19 17  1  0
 19 18  1  0
 20 19  2  0
 21 18  1  0
 22 21  1  0
 24 22  1  0
 24 23  1  0
  1 25  1  0
  1 26  1  0
  2 27  1  0
  2 28  1  0
  3 29  1  0
  3 30  1  0
  4 31  1  0
  4 32  1  0
  5 33  1  0
  5 34  1  0
  9 35  1  0
 10 36  1  0
 10 37  1  0
 11 38  1  0
 11 39  1  0
 12 40  1  0
 12 41  1  0
 13 42  1  0
 13 43  1  0
 13 44  1  0
 14 45  1  0
 14 46  1  0
 15 47  1  0
 15 48  1  0
 16 49  1  0
 16 50  1  0
 18 51  1  0
 21 52  1  0
 21 53  1  0
 22 54  1  0
 22 55  1  0
 23 56  1  0
 23 57  1  0
 23 58  1  0
 24 59  1  0
 24 60  1  0
M  END
>  <score>  (2) 
-6.788

$$$$
=
     RDKit          3D

 60 59  0  0  0  0  0  0  0  0999 V2000
    2.2410   63.9470   70.6530 C   0  0  0  0  0  0  0  0  0  0  0  0
    2.5940   62.8160   69.6820 C   0  0  0  0  0  0  0  0  0  0  0  0
    4.0880   62.6050   69.4200 C   0  0  0  0  0  0  0  0  0  0  0  0
    4.9570   62.7950   70.6680 C   0  0  0  0  0  0  0  0  0  0  0  0
    5.3480   61.4620   71.3060 C   0  0  0  0  0  0  0  0  0  0  0  0
    5.2810   61.5290   72.7380 O   0  0  0  0  0  0  0  0  0  0  0  0
    4.2460   60.8670   73.3090 C   0  0  0  0  0  0  0  0  0  0  0  0
    4.2170   59.6720   73.5620 O   0  0  0  0  0  0  0  0  0  0  0  0
    3.2390   61.7510   73.5500 N   0  0  0  0  0  0  0  0  0  0  0  0
    1.9540   61.3530   74.0780 C   0  0  0  0  0  0  0  0  0  0  0  0
    1.0580   62.5630   74.3350 C   0  0  0  0  0  0  0  0  0  0  0  0
   -0.4040   62.3250   73.9530 C   0  0  0  0  0  0  0  0  0  0  0  0
   -0.5830   61.2720   72.8710 C   0  0  0  0  0  0  0  0  0  0  0  0
    0.7500   64.1190   70.9620 C   0  0  0  0  0  0  0  0  0  0  0  0
    0.3030   65.5840   71.0070 C   0  0  0  0  0  0  0  0  0  0  0  0
    0.9410   66.4150   69.8950 C   0  0  0  0  0  0  0  0  0  0  0  0
    0.1040   66.4570   68.7300 O   0  0  0  0  0  0  0  0  0  0  0  0
    0.9270   68.4800   68.3990 N   0  0  0  0  0  0  0  0  0  0  0  0
    0.4600   67.3590   67.7830 C   0  0  0  0  0  0  0  0  0  0  0  0
    0.3780   67.1950   66.5760 O   0  0  0  0  0  0  0  0  0  0  0  0
    1.4680   69.6070   67.6740 C   0  0  0  0  0  0  0  0  0  0  0  0
    2.9920   69.5430   67.6000 C   0  0  0  0  0  0  0  0  0  0  0  0
    4.9030   69.6930   65.9160 C   0  0  0  0  0  0  0  0  0  0  0  0
    3.5140   69.1500   66.2170 C   0  0  0  0  0  0  0  0  0  0  0  0
    2.7621   63.7522   71.6019 H   0  0  0  0  0  0  0  0  0  0  0  0
    2.5522   64.8769   70.1546 H   0  0  0  0  0  0  0  0  0  0  0  0
    2.1877   61.8797   70.0923 H   0  0  0  0  0  0  0  0  0  0  0  0
    2.1589   63.1062   68.7143 H   0  0  0  0  0  0  0  0  0  0  0  0
    4.2352   61.5814   69.0450 H   0  0  0  0  0  0  0  0  0  0  0  0
    4.4000   63.3645   68.6880 H   0  0  0  0  0  0  0  0  0  0  0  0
    5.8727   63.3341   70.3836 H   0  0  0  0  0  0  0  0  0  0  0  0
    4.3710   63.3638   71.4049 H   0  0  0  0  0  0  0  0  0  0  0  0
    4.6605   60.6799   70.9515 H   0  0  0  0  0  0  0  0  0  0  0  0
    6.3839   61.2300   71.0177 H   0  0  0  0  0  0  0  0  0  0  0  0
    3.4002   62.7478   73.3470 H   0  0  0  0  0  0  0  0  0  0  0  0
    1.4596   60.6890   73.3537 H   0  0  0  0  0  0  0  0  0  0  0  0
    2.1182   60.8345   75.0342 H   0  0  0  0  0  0  0  0  0  0  0  0
    1.1033   62.8099   75.4060 H   0  0  0  0  0  0  0  0  0  0  0  0
    1.4301   63.3839   73.7044 H   0  0  0  0  0  0  0  0  0  0  0  0
   -0.9499   61.9987   74.8505 H   0  0  0  0  0  0  0  0  0  0  0  0
   -0.7923   63.2723   73.5508 H   0  0  0  0  0  0  0  0  0  0  0  0
   -0.7499   60.2904   73.3386 H   0  0  0  0  0  0  0  0  0  0  0  0
   -1.4498   61.5324   72.2458 H   0  0  0  0  0  0  0  0  0  0  0  0
    0.3211   61.2313   72.2458 H   0  0  0  0  0  0  0  0  0  0  0  0
    0.1705   63.6014   70.1833 H   0  0  0  0  0  0  0  0  0  0  0  0
    0.5745   63.6950   71.9617 H   0  0  0  0  0  0  0  0  0  0  0  0
   -0.7907   65.6245   70.8968 H   0  0  0  0  0  0  0  0  0  0  0  0
    0.6234   66.0060   71.9710 H   0  0  0  0  0  0  0  0  0  0  0  0
    1.0991   67.4406   70.2598 H   0  0  0  0  0  0  0  0  0  0  0  0
    1.8980   65.9486   69.6184 H   0  0  0  0  0  0  0  0  0  0  0  0
    0.8932   68.5268   69.4274 H   0  0  0  0  0  0  0  0  0  0  0  0
    1.0598   69.6047   66.6526 H   0  0  0  0  0  0  0  0  0  0  0  0
    1.1858   70.5279   68.2053 H   0  0  0  0  0  0  0  0  0  0  0  0
    3.3961   70.5332   67.8574 H   0  0  0  0  0  0  0  0  0  0  0  0
    3.3203   68.7655   68.3055 H   0  0  0  0  0  0  0  0  0  0  0  0
    5.4288   69.8986   66.8601 H   0  0  0  0  0  0  0  0  0  0  0  0
    5.4692   68.9500   65.3352 H   0  0  0  0  0  0  0  0  0  0  0  0
    4.8152   70.6230   65.3352 H   0  0  0  0  0  0  0  0  0  0  0  0
    3.5487   68.0522   66.1569 H   0  0  0  0  0  0  0  0  0  0  0  0
    2.8282   69.5867   65.4761 H   0  0  0  0  0  0  0  0  0  0  0  0
  2  1  1  0
  3  2  1  0
  4  3  1  0
  5  4  1  0
  6  5  1  0
  7  6  1  0
  8  7  2  0
  9  7  1  0
 10  9  1  0
 11 10  1  0
 12 11  1  0
 13 12  1  0
 14  1  1  0
 15 14  1  0
 16 15  1  0
 17 16  1  0
 19 17  1  0
 19 18  1  0
 20 19  2  0
 21 18  1  0
 22 21  1  0
 24 22  1  0
 24 23  1  0
  1 25  1  0
  1 26  1  0
  2 27  1  0
  2 28  1  0
  3 29  1  0
  3 30  1  0
  4 31  1  0
  4 32  1  0
  5 33  1  0
  5 34  1  0
  9 35  1  0
 10 36  1  0
 10 37  1  0
 11 38  1  0
 11 39  1  0
 12 40  1  0
 12 41  1  0
 13 42  1  0
 13 43  1  0
 13 44  1  0
 14 45  1  0
 14 46  1  0
 15 47  1  0
 15 48  1  0
 16 49  1  0
 16 50  1  0
 18 51  1  0
 21 52  1  0
 21 53  1  0
 22 54  1  0
 22 55  1  0
 23 56  1  0
 23 57  1  0
 23 58  1  0
 24 59  1  0
 24 60  1  0
M  END
>  <score>  (3) 
-6.788

$$$$
=
     RDKit          3D

 60 59  0  0  0  0  0  0  0  0999 V2000
    2.8740   62.0630   69.0990 C   0  0  0  0  0  0  0  0  0  0  0  0
    2.0840   62.7040   70.2430 C   0  0  0  0  0  0  0  0  0  0  0  0
    2.3540   64.1910   70.4890 C   0  0  0  0  0  0  0  0  0  0  0  0
    1.0780   65.0310   70.6050 C   0  0  0  0  0  0  0  0  0  0  0  0
    1.2110   66.3830   69.9040 C   0  0  0  0  0  0  0  0  0  0  0  0
    0.2690   66.5090   68.8290 O   0  0  0  0  0  0  0  0  0  0  0  0
    0.3820   67.6320   68.0790 C   0  0  0  0  0  0  0  0  0  0  0  0
   -0.3720   67.9660   67.1790 O   0  0  0  0  0  0  0  0  0  0  0  0
    1.4780   68.3260   68.4910 N   0  0  0  0  0  0  0  0  0  0  0  0
    1.9330   69.5340   67.8410 C   0  0  0  0  0  0  0  0  0  0  0  0
    2.7750   69.2200   66.6060 C   0  0  0  0  0  0  0  0  0  0  0  0
    4.2470   69.6080   66.7630 C   0  0  0  0  0  0  0  0  0  0  0  0
    4.5480   70.3240   68.0690 C   0  0  0  0  0  0  0  0  0  0  0  0
    3.8620   60.9640   69.5050 C   0  0  0  0  0  0  0  0  0  0  0  0
    3.4480   60.2140   70.7750 C   0  0  0  0  0  0  0  0  0  0  0  0
    4.5340   60.2560   71.8490 C   0  0  0  0  0  0  0  0  0  0  0  0
    4.3350   61.3560   72.7490 O   0  0  0  0  0  0  0  0  0  0  0  0
    2.6210   62.3950   73.6770 N   0  0  0  0  0  0  0  0  0  0  0  0
    3.3080   61.2220   73.6230 C   0  0  0  0  0  0  0  0  0  0  0  0
    3.0400   60.2130   74.2570 O   0  0  0  0  0  0  0  0  0  0  0  0
    1.4150   62.5650   74.4540 C   0  0  0  0  0  0  0  0  0  0  0  0
    0.2110   62.8560   73.5600 C   0  0  0  0  0  0  0  0  0  0  0  0
   -1.7190   61.2130   73.2680 C   0  0  0  0  0  0  0  0  0  0  0  0
   -0.3180   61.6160   72.8350 C   0  0  0  0  0  0  0  0  0  0  0  0
    2.1520   61.6244   68.3944 H   0  0  0  0  0  0  0  0  0  0  0  0
    3.4850   62.8701   68.6687 H   0  0  0  0  0  0  0  0  0  0  0  0
    1.0131   62.5880   70.0200 H   0  0  0  0  0  0  0  0  0  0  0  0
    2.4097   62.1863   71.1573 H   0  0  0  0  0  0  0  0  0  0  0  0
    2.9237   64.2916   71.4246 H   0  0  0  0  0  0  0  0  0  0  0  0
    2.9122   64.5675   69.6191 H   0  0  0  0  0  0  0  0  0  0  0  0
    0.2455   64.4756   70.1484 H   0  0  0  0  0  0  0  0  0  0  0  0
    0.8946   65.2209   71.6729 H   0  0  0  0  0  0  0  0  0  0  0  0
    1.0296   67.1848   70.6349 H   0  0  0  0  0  0  0  0  0  0  0  0
    2.2258   66.4586   69.4864 H   0  0  0  0  0  0  0  0  0  0  0  0
    2.0067   67.9746   69.3021 H   0  0  0  0  0  0  0  0  0  0  0  0
    1.0584   70.1275   67.5363 H   0  0  0  0  0  0  0  0  0  0  0  0
    2.5575   70.0951   68.5518 H   0  0  0  0  0  0  0  0  0  0  0  0
    2.7177   68.1391   66.4098 H   0  0  0  0  0  0  0  0  0  0  0  0
    2.3682   69.8140   65.7744 H   0  0  0  0  0  0  0  0  0  0  0  0
    4.8552   68.6924   66.7194 H   0  0  0  0  0  0  0  0  0  0  0  0
    4.4867   70.3066   65.9478 H   0  0  0  0  0  0  0  0  0  0  0  0
    4.2752   69.6751   68.9143 H   0  0  0  0  0  0  0  0  0  0  0  0
    5.6213   70.5596   68.1191 H   0  0  0  0  0  0  0  0  0  0  0  0
    3.9654   71.2557   68.1191 H   0  0  0  0  0  0  0  0  0  0  0  0
    3.9362   60.2396   68.6805 H   0  0  0  0  0  0  0  0  0  0  0  0
    4.8243   61.4535   69.7155 H   0  0  0  0  0  0  0  0  0  0  0  0
    2.5340   60.6754   71.1770 H   0  0  0  0  0  0  0  0  0  0  0  0
    3.2793   59.1609   70.5059 H   0  0  0  0  0  0  0  0  0  0  0  0
    4.5093   59.3164   72.4205 H   0  0  0  0  0  0  0  0  0  0  0  0
    5.5076   60.3846   71.3535 H   0  0  0  0  0  0  0  0  0  0  0  0
    2.9769   63.1983   73.1395 H   0  0  0  0  0  0  0  0  0  0  0  0
    1.2234   61.6435   75.0233 H   0  0  0  0  0  0  0  0  0  0  0  0
    1.5576   63.4202   75.1310 H   0  0  0  0  0  0  0  0  0  0  0  0
   -0.5963   63.2666   74.1842 H   0  0  0  0  0  0  0  0  0  0  0  0
    0.5417   63.5679   72.7894 H   0  0  0  0  0  0  0  0  0  0  0  0
   -1.7730   61.1975   74.3666 H   0  0  0  0  0  0  0  0  0  0  0  0
   -2.4470   61.9382   72.8753 H   0  0  0  0  0  0  0  0  0  0  0  0
   -1.9504   60.2119   72.8753 H   0  0  0  0  0  0  0  0  0  0  0  0
   -0.3335   61.8240   71.7550 H   0  0  0  0  0  0  0  0  0  0  0  0
    0.3522   60.7816   73.0890 H   0  0  0  0  0  0  0  0  0  0  0  0
  2  1  1  0
  3  2  1  0
  4  3  1  0
  5  4  1  0
  6  5  1  0
  7  6  1  0
  8  7  2  0
  9  7  1  0
 10  9  1  0
 11 10  1  0
 12 11  1  0
 13 12  1  0
 14  1  1  0
 15 14  1  0
 16 15  1  0
 17 16  1  0
 19 17  1  0
 19 18  1  0
 20 19  2  0
 21 18  1  0
 22 21  1  0
 24 22  1  0
 24 23  1  0
  1 25  1  0
  1 26  1  0
  2 27  1  0
  2 28  1  0
  3 29  1  0
  3 30  1  0
  4 31  1  0
  4 32  1  0
  5 33  1  0
  5 34  1  0
  9 35  1  0
 10 36  1  0
 10 37  1  0
 11 38  1  0
 11 39  1  0
 12 40  1  0
 12 41  1  0
 13 42  1  0
 13 43  1  0
 13 44  1  0
 14 45  1  0
 14 46  1  0
 15 47  1  0
 15 48  1  0
 16 49  1  0
 16 50  1  0
 18 51  1  0
 21 52  1  0
 21 53  1  0
 22 54  1  0
 22 55  1  0
 23 56  1  0
 23 57  1  0
 23 58  1  0
 24 59  1  0
 24 60  1  0
M  END
>  <score>  (4) 
-6.777

$$$$
=
     RDKit          3D

 60 59  0  0  0  0  0  0  0  0999 V2000
    0.6780   64.8230   71.0240 C   0  0  0  0  0  0  0  0  0  0  0  0
    1.5960   63.6140   71.2240 C   0  0  0  0  0  0  0  0  0  0  0  0
    2.5960   63.3420   70.0960 C   0  0  0  0  0  0  0  0  0  0  0  0
    4.0560   63.5300   70.5210 C   0  0  0  0  0  0  0  0  0  0  0  0
    4.6940   62.2210   70.9860 C   0  0  0  0  0  0  0  0  0  0  0  0
    4.6680   61.2290   69.9490 O   0  0  0  0  0  0  0  0  0  0  0  0
    4.1770   60.0180   70.3080 C   0  0  0  0  0  0  0  0  0  0  0  0
    3.8790   59.1150   69.5420 O   0  0  0  0  0  0  0  0  0  0  0  0
    4.0660   59.9750   71.6640 N   0  0  0  0  0  0  0  0  0  0  0  0
    3.4950   58.8500   72.3690 C   0  0  0  0  0  0  0  0  0  0  0  0
    1.9750   58.9690   72.4710 C   0  0  0  0  0  0  0  0  0  0  0  0
    1.5100   60.3050   73.0520 C   0  0  0  0  0  0  0  0  0  0  0  0
    0.0310   60.5790   72.8310 C   0  0  0  0  0  0  0  0  0  0  0  0
    1.0820   65.7890   69.9050 C   0  0  0  0  0  0  0  0  0  0  0  0
   -0.0990   66.5730   69.3230 C   0  0  0  0  0  0  0  0  0  0  0  0
    0.3280   67.4960   68.1830 C   0  0  0  0  0  0  0  0  0  0  0  0
    0.0020   66.9320   66.9050 O   0  0  0  0  0  0  0  0  0  0  0  0
    2.0130   67.1820   66.0260 N   0  0  0  0  0  0  0  0  0  0  0  0
    0.6870   67.4340   65.8490 C   0  0  0  0  0  0  0  0  0  0  0  0
    0.1970   68.0160   64.8930 O   0  0  0  0  0  0  0  0  0  0  0  0
    3.0150   67.5140   65.0390 C   0  0  0  0  0  0  0  0  0  0  0  0
    3.4110   68.9870   65.1210 C   0  0  0  0  0  0  0  0  0  0  0  0
    5.1780   69.8150   66.7640 C   0  0  0  0  0  0  0  0  0  0  0  0
    3.7170   69.4530   66.5450 C   0  0  0  0  0  0  0  0  0  0  0  0
   -0.3307   64.4471   70.7976 H   0  0  0  0  0  0  0  0  0  0  0  0
    0.7403   65.4031   71.9565 H   0  0  0  0  0  0  0  0  0  0  0  0
    2.1674   63.7738   72.1503 H   0  0  0  0  0  0  0  0  0  0  0  0
    0.9327   62.7370   71.2529 H   0  0  0  0  0  0  0  0  0  0  0  0
    2.4628   62.3050   69.7540 H   0  0  0  0  0  0  0  0  0  0  0  0
    2.3928   64.0713   69.2980 H   0  0  0  0  0  0  0  0  0  0  0  0
    4.6272   63.9182   69.6648 H   0  0  0  0  0  0  0  0  0  0  0  0
    4.0743   64.2340   71.3660 H   0  0  0  0  0  0  0  0  0  0  0  0
    5.7388   62.4135   71.2712 H   0  0  0  0  0  0  0  0  0  0  0  0
    4.1193   61.8409   71.8435 H   0  0  0  0  0  0  0  0  0  0  0  0
    4.4037   60.7794   72.2115 H   0  0  0  0  0  0  0  0  0  0  0  0
    3.7461   57.9248   71.8296 H   0  0  0  0  0  0  0  0  0  0  0  0
    3.9100   58.8330   73.3876 H   0  0  0  0  0  0  0  0  0  0  0  0
    1.5479   58.8590   71.4633 H   0  0  0  0  0  0  0  0  0  0  0  0
    1.6318   58.1792   73.1554 H   0  0  0  0  0  0  0  0  0  0  0  0
    1.7057   60.3012   74.1344 H   0  0  0  0  0  0  0  0  0  0  0  0
    2.0678   61.0969   72.5307 H   0  0  0  0  0  0  0  0  0  0  0  0
   -0.4739   60.6725   73.8038 H   0  0  0  0  0  0  0  0  0  0  0  0
   -0.0880   61.5145   72.2647 H   0  0  0  0  0  0  0  0  0  0  0  0
   -0.4152   59.7482   72.2647 H   0  0  0  0  0  0  0  0  0  0  0  0
    1.8113   66.5062   70.3097 H   0  0  0  0  0  0  0  0  0  0  0  0
    1.5037   65.1834   69.0893 H   0  0  0  0  0  0  0  0  0  0  0  0
   -0.8443   65.8597   68.9413 H   0  0  0  0  0  0  0  0  0  0  0  0
   -0.5181   67.1981   70.1253 H   0  0  0  0  0  0  0  0  0  0  0  0
   -0.1886   68.4611   68.2909 H   0  0  0  0  0  0  0  0  0  0  0  0
    1.4186   67.6300   68.2351 H   0  0  0  0  0  0  0  0  0  0  0  0
    2.3158   66.7345   66.9029 H   0  0  0  0  0  0  0  0  0  0  0  0
    3.9067   66.8935   65.2114 H   0  0  0  0  0  0  0  0  0  0  0  0
    2.5942   67.3235   64.0407 H   0  0  0  0  0  0  0  0  0  0  0  0
    4.3073   69.1425   64.5026 H   0  0  0  0  0  0  0  0  0  0  0  0
    2.5532   69.5753   64.7631 H   0  0  0  0  0  0  0  0  0  0  0  0
    5.3853   69.8664   67.8431 H   0  0  0  0  0  0  0  0  0  0  0  0
    5.8187   69.0484   66.3037 H   0  0  0  0  0  0  0  0  0  0  0  0
    5.3867   70.7920   66.3037 H   0  0  0  0  0  0  0  0  0  0  0  0
    3.1025   70.3394   66.7609 H   0  0  0  0  0  0  0  0  0  0  0  0
    3.4876   68.6127   67.2168 H   0  0  0  0  0  0  0  0  0  0  0  0
  2  1  1  0
  3  2  1  0
  4  3  1  0
  5  4  1  0
  6  5  1  0
  7  6  1  0
  8  7  2  0
  9  7  1  0
 10  9  1  0
 11 10  1  0
 12 11  1  0
 13 12  1  0
 14  1  1  0
 15 14  1  0
 16 15  1  0
 17 16  1  0
 19 17  1  0
 19 18  1  0
 20 19  2  0
 21 18  1  0
 22 21  1  0
 24 22  1  0
 24 23  1  0
  1 25  1  0
  1 26  1  0
  2 27  1  0
  2 28  1  0
  3 29  1  0
  3 30  1  0
  4 31  1  0
  4 32  1  0
  5 33  1  0
  5 34  1  0
  9 35  1  0
 10 36  1  0
 10 37  1  0
 11 38  1  0
 11 39  1  0
 12 40  1  0
 12 41  1  0
 13 42  1  0
 13 43  1  0
 13 44  1  0
 14 45  1  0
 14 46  1  0
 15 47  1  0
 15 48  1  0
 16 49  1  0
 16 50  1  0
 18 51  1  0
 21 52  1  0
 21 53  1  0
 22 54  1  0
 22 55  1  0
 23 56  1  0
 23 57  1  0
 23 58  1  0
 24 59  1  0
 24 60  1  0
M  END
>  <score>  (5) 
-6.729

$$$$
=
     RDKit          3D

 60 59  0  0  0  0  0  0  0  0999 V2000
    2.2630   69.3530   68.1910 C   0  0  0  0  0  0  0  0  0  0  0  0
    2.9870   70.6730   68.4710 C   0  0  0  0  0  0  0  0  0  0  0  0
    4.3080   70.5600   69.2380 C   0  0  0  0  0  0  0  0  0  0  0  0
    5.5380   70.8770   68.3810 C   0  0  0  0  0  0  0  0  0  0  0  0
    5.7000   69.8960   67.2200 C   0  0  0  0  0  0  0  0  0  0  0  0
    5.3860   70.5150   65.9650 O   0  0  0  0  0  0  0  0  0  0  0  0
    4.9870   69.6750   64.9790 C   0  0  0  0  0  0  0  0  0  0  0  0
    5.3670   69.7060   63.8190 O   0  0  0  0  0  0  0  0  0  0  0  0
    4.0870   68.7930   65.4940 N   0  0  0  0  0  0  0  0  0  0  0  0
    3.4010   67.8100   64.6860 C   0  0  0  0  0  0  0  0  0  0  0  0
    1.9690   68.2440   64.3760 C   0  0  0  0  0  0  0  0  0  0  0  0
    1.7720   68.6880   62.9260 C   0  0  0  0  0  0  0  0  0  0  0  0
    0.3870   69.2490   62.6470 C   0  0  0  0  0  0  0  0  0  0  0  0
    0.8510   69.4770   67.6090 C   0  0  0  0  0  0  0  0  0  0  0  0
    0.0180   68.2000   67.7580 C   0  0  0  0  0  0  0  0  0  0  0  0
    0.6490   67.2110   68.7380 C   0  0  0  0  0  0  0  0  0  0  0  0
   -0.2980   66.2200   69.1620 O   0  0  0  0  0  0  0  0  0  0  0  0
    0.4110   64.2630   69.9010 N   0  0  0  0  0  0  0  0  0  0  0  0
    0.0420   65.5190   70.2710 C   0  0  0  0  0  0  0  0  0  0  0  0
    0.0240   65.9450   71.4160 O   0  0  0  0  0  0  0  0  0  0  0  0
    0.9120   63.2820   70.8370 C   0  0  0  0  0  0  0  0  0  0  0  0
    2.4390   63.2810   70.8800 C   0  0  0  0  0  0  0  0  0  0  0  0
    3.1190   61.2100   69.5550 C   0  0  0  0  0  0  0  0  0  0  0  0
    3.0790   62.7300   69.6050 C   0  0  0  0  0  0  0  0  0  0  0  0
    2.8726   68.7784   67.4781 H   0  0  0  0  0  0  0  0  0  0  0  0
    2.1409   68.8659   69.1697 H   0  0  0  0  0  0  0  0  0  0  0  0
    3.1982   71.1535   67.5043 H   0  0  0  0  0  0  0  0  0  0  0  0
    2.3132   71.2509   69.1207 H   0  0  0  0  0  0  0  0  0  0  0  0
    4.2815   71.2631   70.0836 H   0  0  0  0  0  0  0  0  0  0  0  0
    4.4031   69.5153   69.5689 H   0  0  0  0  0  0  0  0  0  0  0  0
    5.4340   71.8937   67.9741 H   0  0  0  0  0  0  0  0  0  0  0  0
    6.4278   70.7920   69.0221 H   0  0  0  0  0  0  0  0  0  0  0  0
    6.7409   69.5412   67.1937 H   0  0  0  0  0  0  0  0  0  0  0  0
    5.0058   69.0571   67.3758 H   0  0  0  0  0  0  0  0  0  0  0  0
    3.8860   68.8276   66.5036 H   0  0  0  0  0  0  0  0  0  0  0  0
    3.9479   67.6792   63.7406 H   0  0  0  0  0  0  0  0  0  0  0  0
    3.3623   66.8655   65.2486 H   0  0  0  0  0  0  0  0  0  0  0  0
    1.2964   67.3970   64.5762 H   0  0  0  0  0  0  0  0  0  0  0  0
    1.7456   69.1108   65.0154 H   0  0  0  0  0  0  0  0  0  0  0  0
    2.5155   69.4653   62.6957 H   0  0  0  0  0  0  0  0  0  0  0  0
    1.8929   67.7953   62.2948 H   0  0  0  0  0  0  0  0  0  0  0  0
   -0.1235   69.4558   63.5992 H   0  0  0  0  0  0  0  0  0  0  0  0
    0.4783   70.1810   62.0700 H   0  0  0  0  0  0  0  0  0  0  0  0
   -0.1961   68.5161   62.0700 H   0  0  0  0  0  0  0  0  0  0  0  0
    0.3305   70.2955   68.1278 H   0  0  0  0  0  0  0  0  0  0  0  0
    0.9594   69.6705   66.5316 H   0  0  0  0  0  0  0  0  0  0  0  0
   -0.9836   68.4708   68.1234 H   0  0  0  0  0  0  0  0  0  0  0  0
   -0.0338   67.7133   66.7729 H   0  0  0  0  0  0  0  0  0  0  0  0
    1.4957   66.7100   68.2459 H   0  0  0  0  0  0  0  0  0  0  0  0
    0.9876   67.7686   69.6237 H   0  0  0  0  0  0  0  0  0  0  0  0
    0.3297   63.9990   68.9087 H   0  0  0  0  0  0  0  0  0  0  0  0
    0.5259   63.5149   71.8403 H   0  0  0  0  0  0  0  0  0  0  0  0
    0.5744   62.2875   70.5098 H   0  0  0  0  0  0  0  0  0  0  0  0
    2.7850   64.3149   71.0258 H   0  0  0  0  0  0  0  0  0  0  0  0
    2.7415   62.6225   71.7076 H   0  0  0  0  0  0  0  0  0  0  0  0
    3.1295   60.8096   70.5795 H   0  0  0  0  0  0  0  0  0  0  0  0
    2.2304   60.8371   69.0247 H   0  0  0  0  0  0  0  0  0  0  0  0
    4.0260   60.8843   69.0247 H   0  0  0  0  0  0  0  0  0  0  0  0
    2.5020   63.0919   68.7412 H   0  0  0  0  0  0  0  0  0  0  0  0
    4.1209   63.0822   69.5873 H   0  0  0  0  0  0  0  0  0  0  0  0
  2  1  1  0
  3  2  1  0
  4  3  1  0
  5  4  1  0
  6  5  1  0
  7  6  1  0
  8  7  2  0
  9  7  1  0
 10  9  1  0
 11 10  1  0
 12 11  1  0
 13 12  1  0
 14  1  1  0
 15 14  1  0
 16 15  1  0
 17 16  1  0
 19 17  1  0
 19 18  1  0
 20 19  2  0
 21 18  1  0
 22 21  1  0
 24 22  1  0
 24 23  1  0
  1 25  1  0
  1 26  1  0
  2 27  1  0
  2 28  1  0
  3 29  1  0
  3 30  1  0
  4 31  1  0
  4 32  1  0
  5 33  1  0
  5 34  1  0
  9 35  1  0
 10 36  1  0
 10 37  1  0
 11 38  1  0
 11 39  1  0
 12 40  1  0
 12 41  1  0
 13 42  1  0
 13 43  1  0
 13 44  1  0
 14 45  1  0
 14 46  1  0
 15 47  1  0
 15 48  1  0
 16 49  1  0
 16 50  1  0
 18 51  1  0
 21 52  1  0
 21 53  1  0
 22 54  1  0
 22 55  1  0
 23 56  1  0
 23 57  1  0
 23 58  1  0
 24 59  1  0
 24 60  1  0
M  END
>  <score>  (6) 
-6.699

$$$$
=
     RDKit          3D

 60 59  0  0  0  0  0  0  0  0999 V2000
    1.2040   63.4290   72.3640 C   0  0  0  0  0  0  0  0  0  0  0  0
    1.0130   61.9970   71.8540 C   0  0  0  0  0  0  0  0  0  0  0  0
    0.5180   60.9820   72.8880 C   0  0  0  0  0  0  0  0  0  0  0  0
    1.2250   59.6260   72.7960 C   0  0  0  0  0  0  0  0  0  0  0  0
    2.3520   59.4940   73.8210 C   0  0  0  0  0  0  0  0  0  0  0  0
    3.4750   58.7880   73.2740 O   0  0  0  0  0  0  0  0  0  0  0  0
    3.8680   59.1780   72.0370 C   0  0  0  0  0  0  0  0  0  0  0  0
    3.6240   58.5910   70.9940 O   0  0  0  0  0  0  0  0  0  0  0  0
    4.5850   60.3290   72.1470 N   0  0  0  0  0  0  0  0  0  0  0  0
    5.2230   60.9680   71.0190 C   0  0  0  0  0  0  0  0  0  0  0  0
    5.2720   62.4850   71.1920 C   0  0  0  0  0  0  0  0  0  0  0  0
    4.3020   63.2300   70.2730 C   0  0  0  0  0  0  0  0  0  0  0  0
    3.7540   62.3700   69.1450 C   0  0  0  0  0  0  0  0  0  0  0  0
    0.4160   64.5120   71.6210 C   0  0  0  0  0  0  0  0  0  0  0  0
    1.0950   64.9800   70.3290 C   0  0  0  0  0  0  0  0  0  0  0  0
    0.7170   66.4150   69.9670 C   0  0  0  0  0  0  0  0  0  0  0  0
   -0.0700   66.4610   68.7680 O   0  0  0  0  0  0  0  0  0  0  0  0
    1.1280   68.2780   68.3950 N   0  0  0  0  0  0  0  0  0  0  0  0
    0.3690   67.3120   67.8100 C   0  0  0  0  0  0  0  0  0  0  0  0
    0.1270   67.2270   66.6160 O   0  0  0  0  0  0  0  0  0  0  0  0
    1.8180   69.3000   67.6410 C   0  0  0  0  0  0  0  0  0  0  0  0
    3.0210   69.8440   68.4110 C   0  0  0  0  0  0  0  0  0  0  0  0
    4.1230   69.4590   66.1430 C   0  0  0  0  0  0  0  0  0  0  0  0
    4.2500   70.0720   67.5290 C   0  0  0  0  0  0  0  0  0  0  0  0
    0.8988   63.4545   73.4205 H   0  0  0  0  0  0  0  0  0  0  0  0
    2.2655   63.6657   72.1990 H   0  0  0  0  0  0  0  0  0  0  0  0
    0.2819   62.0259   71.0326 H   0  0  0  0  0  0  0  0  0  0  0  0
    2.0126   61.6518   71.5512 H   0  0  0  0  0  0  0  0  0  0  0  0
    0.6880   61.3965   73.8926 H   0  0  0  0  0  0  0  0  0  0  0  0
   -0.5489   60.8064   72.6859 H   0  0  0  0  0  0  0  0  0  0  0  0
    0.4881   58.8290   72.9745 H   0  0  0  0  0  0  0  0  0  0  0  0
    1.6682   59.5425   71.7927 H   0  0  0  0  0  0  0  0  0  0  0  0
    2.6761   60.4992   74.1285 H   0  0  0  0  0  0  0  0  0  0  0  0
    1.9720   58.9265   74.6833 H   0  0  0  0  0  0  0  0  0  0  0  0
    4.6771   60.7643   73.0759 H   0  0  0  0  0  0  0  0  0  0  0  0
    6.2499   60.5852   70.9246 H   0  0  0  0  0  0  0  0  0  0  0  0
    4.6373   60.7413   70.1159 H   0  0  0  0  0  0  0  0  0  0  0  0
    5.0195   62.7259   72.2352 H   0  0  0  0  0  0  0  0  0  0  0  0
    6.2884   62.8108   70.9260 H   0  0  0  0  0  0  0  0  0  0  0  0
    3.4570   63.5909   70.8778 H   0  0  0  0  0  0  0  0  0  0  0  0
    4.8641   64.0535   69.8084 H   0  0  0  0  0  0  0  0  0  0  0  0
    3.2084   61.5138   69.5685 H   0  0  0  0  0  0  0  0  0  0  0  0
    3.0711   62.9697   68.5253 H   0  0  0  0  0  0  0  0  0  0  0  0
    4.5860   62.0044   68.5253 H   0  0  0  0  0  0  0  0  0  0  0  0
   -0.5760   64.1097   71.3677 H   0  0  0  0  0  0  0  0  0  0  0  0
    0.3527   65.3837   72.2889 H   0  0  0  0  0  0  0  0  0  0  0  0
    2.1856   64.9233   70.4611 H   0  0  0  0  0  0  0  0  0  0  0  0
    0.7566   64.3249   69.5127 H   0  0  0  0  0  0  0  0  0  0  0  0
    0.1369   66.8519   70.7932 H   0  0  0  0  0  0  0  0  0  0  0  0
    1.6423   66.9850   69.7966 H   0  0  0  0  0  0  0  0  0  0  0  0
    1.2147   68.2811   69.4213 H   0  0  0  0  0  0  0  0  0  0  0  0
    2.1662   68.8698   66.6904 H   0  0  0  0  0  0  0  0  0  0  0  0
    1.1182   70.1294   67.4608 H   0  0  0  0  0  0  0  0  0  0  0  0
    2.7376   70.8027   68.8698 H   0  0  0  0  0  0  0  0  0  0  0  0
    3.2949   69.0898   69.1635 H   0  0  0  0  0  0  0  0  0  0  0  0
    3.9006   68.3857   66.2357 H   0  0  0  0  0  0  0  0  0  0  0  0
    3.3088   69.9562   65.5954 H   0  0  0  0  0  0  0  0  0  0  0  0
    5.0677   69.5917   65.5954 H   0  0  0  0  0  0  0  0  0  0  0  0
    4.4029   71.1556   67.4180 H   0  0  0  0  0  0  0  0  0  0  0  0
    5.1000   69.5798   68.0243 H   0  0  0  0  0  0  0  0  0  0  0  0
  2  1  1  0
  3  2  1  0
  4  3  1  0
  5  4  1  0
  6  5  1  0
  7  6  1  0
  8  7  2  0
  9  7  1  0
 10  9  1  0
 11 10  1  0
 12 11  1  0
 13 12  1  0
 14  1  1  0
 15 14  1  0
 16 15  1  0
 17 16  1  0
 19 17  1  0
 19 18  1  0
 20 19  2  0
 21 18  1  0
 22 21  1  0
 24 22  1  0
 24 23  1  0
  1 25  1  0
  1 26  1  0
  2 27  1  0
  2 28  1  0
  3 29  1  0
  3 30  1  0
  4 31  1  0
  4 32  1  0
  5 33  1  0
  5 34  1  0
  9 35  1  0
 10 36  1  0
 10 37  1  0
 11 38  1  0
 11 39  1  0
 12 40  1  0
 12 41  1  0
 13 42  1  0
 13 43  1  0
 13 44  1  0
 14 45  1  0
 14 46  1  0
 15 47  1  0
 15 48  1  0
 16 49  1  0
 16 50  1  0
 18 51  1  0
 21 52  1  0
 21 53  1  0
 22 54  1  0
 22 55  1  0
 23 56  1  0
 23 57  1  0
 23 58  1  0
 24 59  1  0
 24 60  1  0
M  END
>  <score>  (7) 
-6.666

$$$$
=
     RDKit          3D

 60 59  0  0  0  0  0  0  0  0999 V2000
    1.2790   62.8230   72.3510 C   0  0  0  0  0  0  0  0  0  0  0  0
    0.4070   63.7780   71.5300 C   0  0  0  0  0  0  0  0  0  0  0  0
    1.1610   64.8030   70.6780 C   0  0  0  0  0  0  0  0  0  0  0  0
    0.3080   66.0140   70.2870 C   0  0  0  0  0  0  0  0  0  0  0  0
    1.0410   66.9490   69.3250 C   0  0  0  0  0  0  0  0  0  0  0  0
    0.4150   66.9670   68.0340 O   0  0  0  0  0  0  0  0  0  0  0  0
    0.7960   67.9740   67.2110 C   0  0  0  0  0  0  0  0  0  0  0  0
    0.1880   69.0180   67.0340 O   0  0  0  0  0  0  0  0  0  0  0  0
    1.9660   67.6280   66.6090 N   0  0  0  0  0  0  0  0  0  0  0  0
    2.6050   68.4470   65.6040 C   0  0  0  0  0  0  0  0  0  0  0  0
    3.5880   69.4330   66.2300 C   0  0  0  0  0  0  0  0  0  0  0  0
    4.9630   69.4250   65.5600 C   0  0  0  0  0  0  0  0  0  0  0  0
    4.8970   69.4440   64.0420 C   0  0  0  0  0  0  0  0  0  0  0  0
    0.6520   61.4650   72.6820 C   0  0  0  0  0  0  0  0  0  0  0  0
    1.5970   60.2840   72.4380 C   0  0  0  0  0  0  0  0  0  0  0  0
    2.2840   59.8210   73.7220 C   0  0  0  0  0  0  0  0  0  0  0  0
    3.7010   60.0400   73.6630 O   0  0  0  0  0  0  0  0  0  0  0  0
    4.6200   61.5060   72.2900 N   0  0  0  0  0  0  0  0  0  0  0  0
    4.2180   60.2120   72.4220 C   0  0  0  0  0  0  0  0  0  0  0  0
    4.3110   59.3490   71.5630 O   0  0  0  0  0  0  0  0  0  0  0  0
    5.2920   62.0040   71.1120 C   0  0  0  0  0  0  0  0  0  0  0  0
    4.5730   63.2190   70.5300 C   0  0  0  0  0  0  0  0  0  0  0  0
    2.9370   61.7890   69.1940 C   0  0  0  0  0  0  0  0  0  0  0  0
    3.9250   62.9450   69.1720 C   0  0  0  0  0  0  0  0  0  0  0  0
    2.2035   62.6386   71.7841 H   0  0  0  0  0  0  0  0  0  0  0  0
    1.4389   63.3217   73.3183 H   0  0  0  0  0  0  0  0  0  0  0  0
   -0.2155   63.1714   70.8559 H   0  0  0  0  0  0  0  0  0  0  0  0
   -0.1670   64.3635   72.2633 H   0  0  0  0  0  0  0  0  0  0  0  0
    2.0309   65.1591   71.2494 H   0  0  0  0  0  0  0  0  0  0  0  0
    1.4544   64.2978   69.7460 H   0  0  0  0  0  0  0  0  0  0  0  0
   -0.6126   65.6573   69.8020 H   0  0  0  0  0  0  0  0  0  0  0  0
    0.0839   66.5797   71.2034 H   0  0  0  0  0  0  0  0  0  0  0  0
    1.0338   67.9675   69.7405 H   0  0  0  0  0  0  0  0  0  0  0  0
    2.0717   66.5838   69.2051 H   0  0  0  0  0  0  0  0  0  0  0  0
    2.4166   66.7428   66.8816 H   0  0  0  0  0  0  0  0  0  0  0  0
    3.1488   67.7953   64.9042 H   0  0  0  0  0  0  0  0  0  0  0  0
    1.8267   69.0207   65.0794 H   0  0  0  0  0  0  0  0  0  0  0  0
    3.1661   70.4456   66.1488 H   0  0  0  0  0  0  0  0  0  0  0  0
    3.7340   69.1272   67.2765 H   0  0  0  0  0  0  0  0  0  0  0  0
    5.5191   70.3128   65.8956 H   0  0  0  0  0  0  0  0  0  0  0  0
    5.4595   68.4875   65.8508 H   0  0  0  0  0  0  0  0  0  0  0  0
    3.8855   69.7352   63.7226 H   0  0  0  0  0  0  0  0  0  0  0  0
    5.6273   70.1684   63.6523 H   0  0  0  0  0  0  0  0  0  0  0  0
    5.1304   68.4422   63.6523 H   0  0  0  0  0  0  0  0  0  0  0  0
    0.3599   61.4648   73.7425 H   0  0  0  0  0  0  0  0  0  0  0  0
   -0.2116   61.3339   72.0134 H   0  0  0  0  0  0  0  0  0  0  0  0
    1.0172   59.4458   72.0241 H   0  0  0  0  0  0  0  0  0  0  0  0
    2.3776   60.6148   71.7372 H   0  0  0  0  0  0  0  0  0  0  0  0
    1.8697   60.3822   74.5725 H   0  0  0  0  0  0  0  0  0  0  0  0
    2.1040   58.7426   73.8428 H   0  0  0  0  0  0  0  0  0  0  0  0
    4.4368   62.1594   73.0649 H   0  0  0  0  0  0  0  0  0  0  0  0
    6.3192   62.2913   71.3809 H   0  0  0  0  0  0  0  0  0  0  0  0
    5.2944   61.2077   70.3531 H   0  0  0  0  0  0  0  0  0  0  0  0
    3.7882   63.5311   71.2348 H   0  0  0  0  0  0  0  0  0  0  0  0
    5.3292   64.0033   70.3780 H   0  0  0  0  0  0  0  0  0  0  0  0
    2.7085   61.5217   70.2363 H   0  0  0  0  0  0  0  0  0  0  0  0
    2.0112   62.0881   68.6808 H   0  0  0  0  0  0  0  0  0  0  0  0
    3.3767   60.9211   68.6808 H   0  0  0  0  0  0  0  0  0  0  0  0
    3.3924   63.8523   68.8509 H   0  0  0  0  0  0  0  0  0  0  0  0
    4.7323   62.6678   68.4781 H   0  0  0  0  0  0  0  0  0  0  0  0
  2  1  1  0
  3  2  1  0
  4  3  1  0
  5  4  1  0
  6  5  1  0
  7  6  1  0
  8  7  2  0
  9  7  1  0
 10  9  1  0
 11 10  1  0
 12 11  1  0
 13 12  1  0
 14  1  1  0
 15 14  1  0
 16 15  1  0
 17 16  1  0
 19 17  1  0
 19 18  1  0
 20 19  2  0
 21 18  1  0
 22 21  1  0
 24 22  1  0
 24 23  1  0
  1 25  1  0
  1 26  1  0
  2 27  1  0
  2 28  1  0
  3 29  1  0
  3 30  1  0
  4 31  1  0
  4 32  1  0
  5 33  1  0
  5 34  1  0
  9 35  1  0
 10 36  1  0
 10 37  1  0
 11 38  1  0
 11 39  1  0
 12 40  1  0
 12 41  1  0
 13 42  1  0
 13 43  1  0
 13 44  1  0
 14 45  1  0
 14 46  1  0
 15 47  1  0
 15 48  1  0
 16 49  1  0
 16 50  1  0
 18 51  1  0
 21 52  1  0
 21 53  1  0
 22 54  1  0
 22 55  1  0
 23 56  1  0
 23 57  1  0
 23 58  1  0
 24 59  1  0
 24 60  1  0
M  END
>  <score>  (8) 
-6.635

$$$$
=
     RDKit          3D

 60 59  0  0  0  0  0  0  0  0999 V2000
    0.6140   64.2650   71.6380 C   0  0  0  0  0  0  0  0  0  0  0  0
    1.2500   65.0800   70.5070 C   0  0  0  0  0  0  0  0  0  0  0  0
    0.3690   66.1740   69.8970 C   0  0  0  0  0  0  0  0  0  0  0  0
    1.1450   67.1570   69.0140 C   0  0  0  0  0  0  0  0  0  0  0  0
    0.2390   67.8650   68.0060 C   0  0  0  0  0  0  0  0  0  0  0  0
    0.0360   67.0650   66.8330 O   0  0  0  0  0  0  0  0  0  0  0  0
    0.9890   67.1740   65.8760 C   0  0  0  0  0  0  0  0  0  0  0  0
    1.2700   66.3200   65.0500 O   0  0  0  0  0  0  0  0  0  0  0  0
    1.5870   68.3910   65.9890 N   0  0  0  0  0  0  0  0  0  0  0  0
    2.7060   68.7960   65.1710 C   0  0  0  0  0  0  0  0  0  0  0  0
    3.7880   69.4810   66.0030 C   0  0  0  0  0  0  0  0  0  0  0  0
    5.2010   69.2580   65.4610 C   0  0  0  0  0  0  0  0  0  0  0  0
    5.3260   69.5260   63.9700 C   0  0  0  0  0  0  0  0  0  0  0  0
    0.4840   62.7600   71.3830 C   0  0  0  0  0  0  0  0  0  0  0  0
   -0.2290   62.0110   72.5140 C   0  0  0  0  0  0  0  0  0  0  0  0
    0.7160   61.0800   73.2720 C   0  0  0  0  0  0  0  0  0  0  0  0
    0.9100   59.8450   72.5670 O   0  0  0  0  0  0  0  0  0  0  0  0
    3.0360   60.1220   72.0370 N   0  0  0  0  0  0  0  0  0  0  0  0
    2.1480   59.3030   72.6630 C   0  0  0  0  0  0  0  0  0  0  0  0
    2.4250   58.2530   73.2210 O   0  0  0  0  0  0  0  0  0  0  0  0
    4.4610   59.8770   72.0260 C   0  0  0  0  0  0  0  0  0  0  0  0
    5.2280   61.0690   71.4580 C   0  0  0  0  0  0  0  0  0  0  0  0
    4.6090   63.3370   70.4660 C   0  0  0  0  0  0  0  0  0  0  0  0
    4.4550   61.8260   70.3770 C   0  0  0  0  0  0  0  0  0  0  0  0
    1.2283   64.4027   72.5400 H   0  0  0  0  0  0  0  0  0  0  0  0
   -0.4149   64.6416   71.7359 H   0  0  0  0  0  0  0  0  0  0  0  0
    2.1565   65.5595   70.9050 H   0  0  0  0  0  0  0  0  0  0  0  0
    1.4426   64.3639   69.6945 H   0  0  0  0  0  0  0  0  0  0  0  0
   -0.4090   65.6945   69.2849 H   0  0  0  0  0  0  0  0  0  0  0  0
   -0.0561   66.7518   70.7309 H   0  0  0  0  0  0  0  0  0  0  0  0
    1.6188   67.9133   69.6571 H   0  0  0  0  0  0  0  0  0  0  0  0
    1.8962   66.5847   68.4500 H   0  0  0  0  0  0  0  0  0  0  0  0
   -0.7350   68.0627   68.4774 H   0  0  0  0  0  0  0  0  0  0  0  0
    0.7245   68.8048   67.7044 H   0  0  0  0  0  0  0  0  0  0  0  0
    1.2251   69.0534   66.6898 H   0  0  0  0  0  0  0  0  0  0  0  0
    3.1362   67.9063   64.6878 H   0  0  0  0  0  0  0  0  0  0  0  0
    2.3429   69.5125   64.4195 H   0  0  0  0  0  0  0  0  0  0  0  0
    3.5859   70.5622   66.0163 H   0  0  0  0  0  0  0  0  0  0  0  0
    3.7523   69.0399   67.0100 H   0  0  0  0  0  0  0  0  0  0  0  0
    5.8891   69.9300   65.9948 H   0  0  0  0  0  0  0  0  0  0  0  0
    5.4464   68.1978   65.6216 H   0  0  0  0  0  0  0  0  0  0  0  0
    5.7862   70.5126   63.8121 H   0  0  0  0  0  0  0  0  0  0  0  0
    5.9551   68.7500   63.5095 H   0  0  0  0  0  0  0  0  0  0  0  0
    4.3272   69.5093   63.5095 H   0  0  0  0  0  0  0  0  0  0  0  0
   -0.0851   62.6116   70.4534 H   0  0  0  0  0  0  0  0  0  0  0  0
    1.5035   62.3526   71.3156 H   0  0  0  0  0  0  0  0  0  0  0  0
   -0.6443   62.7458   73.2194 H   0  0  0  0  0  0  0  0  0  0  0  0
   -1.0227   61.3958   72.0651 H   0  0  0  0  0  0  0  0  0  0  0  0
    1.6886   61.5791   73.3942 H   0  0  0  0  0  0  0  0  0  0  0  0
    0.2682   60.8536   74.2509 H   0  0  0  0  0  0  0  0  0  0  0  0
    2.6767   60.9546   71.5486 H   0  0  0  0  0  0  0  0  0  0  0  0
    4.8000   59.6914   73.0559 H   0  0  0  0  0  0  0  0  0  0  0  0
    4.6567   59.0035   71.3867 H   0  0  0  0  0  0  0  0  0  0  0  0
    5.4505   61.7650   72.2803 H   0  0  0  0  0  0  0  0  0  0  0  0
    6.1421   60.6751   70.9896 H   0  0  0  0  0  0  0  0  0  0  0  0
    4.6400   63.6408   71.5228 H   0  0  0  0  0  0  0  0  0  0  0  0
    5.5427   63.6403   69.9698 H   0  0  0  0  0  0  0  0  0  0  0  0
    3.7557   63.8224   69.9698 H   0  0  0  0  0  0  0  0  0  0  0  0
    4.8195   61.4963   69.3929 H   0  0  0  0  0  0  0  0  0  0  0  0
    3.3885   61.6004   70.5240 H   0  0  0  0  0  0  0  0  0  0  0  0
  2  1  1  0
  3  2  1  0
  4  3  1  0
  5  4  1  0
  6  5  1  0
  7  6  1  0
  8  7  2  0
  9  7  1  0
 10  9  1  0
 11 10  1  0
 12 11  1  0
 13 12  1  0
 14  1  1  0
 15 14  1  0
 16 15  1  0
 17 16  1  0
 19 17  1  0
 19 18  1  0
 20 19  2  0
 21 18  1  0
 22 21  1  0
 24 22  1  0
 24 23  1  0
  1 25  1  0
  1 26  1  0
  2 27  1  0
  2 28  1  0
  3 29  1  0
  3 30  1  0
  4 31  1  0
  4 32  1  0
  5 33  1  0
  5 34  1  0
  9 35  1  0
 10 36  1  0
 10 37  1  0
 11 38  1  0
 11 39  1  0
 12 40  1  0
 12 41  1  0
 13 42  1  0
 13 43  1  0
 13 44  1  0
 14 45  1  0
 14 46  1  0
 15 47  1  0
 15 48  1  0
 16 49  1  0
 16 50  1  0
 18 51  1  0
 21 52  1  0
 21 53  1  0
 22 54  1  0
 22 55  1  0
 23 56  1  0
 23 57  1  0
 23 58  1  0
 24 59  1  0
 24 60  1  0
M  END
>  <score>  (9) 
-6.582

$$$$
