=
     RDKit          3D

 45 46  0  0  0  0  0  0  0  0999 V2000
    1.2960   67.4310   65.6330 S   0  0  0  0  0  6  0  0  0  0  0  0
    1.2160   66.3020   64.7410 O   0  0  0  0  0  0  0  0  0  0  0  0
    0.6220   68.6770   65.3690 O   0  0  0  0  0  0  0  0  0  0  0  0
    1.0010   66.9730   67.1750 N   0  0  0  0  0  0  0  0  0  0  0  0
   -0.2770   66.9020   67.7030 C   0  0  0  0  0  0  0  0  0  0  0  0
   -1.3090   66.8760   67.0560 O   0  0  0  0  0  0  0  0  0  0  0  0
   -0.2150   66.8860   69.0560 O   0  0  0  0  0  0  0  0  0  0  0  0
    1.1110   66.8140   69.5780 C   0  0  0  0  0  0  0  0  0  0  0  0
    1.1810   65.5640   70.4170 C   0  0  0  0  0  0  0  0  0  0  0  0
    2.3020   64.7240   70.3480 C   0  0  0  0  0  0  0  0  0  0  0  0
    2.3840   63.5850   71.1490 C   0  0  0  0  0  0  0  0  0  0  0  0
    1.3520   63.2790   72.0340 C   0  0  0  0  0  0  0  0  0  0  0  0
    0.2370   64.1120   72.1200 C   0  0  0  0  0  0  0  0  0  0  0  0
    0.1540   65.2520   71.3190 C   0  0  0  0  0  0  0  0  0  0  0  0
    2.9280   67.7670   65.7710 N   0  0  0  0  0  0  0  0  0  0  0  0
    3.3900   69.1140   65.3700 C   0  0  2  0  0  0  0  0  0  0  0  0
    4.0450   69.0260   63.9860 C   0  0  0  0  0  0  0  0  0  0  0  0
    3.8460   69.8580   67.7730 C   0  0  0  0  0  0  0  0  0  0  0  0
    4.7060   70.3820   68.7450 C   0  0  0  0  0  0  0  0  0  0  0  0
    6.0160   70.7340   68.4170 C   0  0  0  0  0  0  0  0  0  0  0  0
    6.4830   70.5530   67.1210 C   0  0  0  0  0  0  0  0  0  0  0  0
    5.6370   70.0300   66.1450 C   0  0  0  0  0  0  0  0  0  0  0  0
    4.3020   69.6940   66.4440 C   0  0  0  0  0  0  0  0  0  0  0  0
    1.6110   70.4500   68.3930 C   0  0  0  0  0  0  0  0  0  0  0  0
    2.5590   69.4480   68.0270 O   0  0  0  0  0  0  0  0  0  0  0  0
    1.7988   66.7272   67.7783 H   0  0  0  0  0  0  0  0  0  0  0  0
    1.8394   66.7594   68.7555 H   0  0  0  0  0  0  0  0  0  0  0  0
    1.3484   67.7055   70.1771 H   0  0  0  0  0  0  0  0  0  0  0  0
    3.1230   64.9653   69.6568 H   0  0  0  0  0  0  0  0  0  0  0  0
    3.2637   62.9280   71.0821 H   0  0  0  0  0  0  0  0  0  0  0  0
    1.4169   62.3802   72.6648 H   0  0  0  0  0  0  0  0  0  0  0  0
   -0.5772   63.8706   72.8192 H   0  0  0  0  0  0  0  0  0  0  0  0
   -0.7237   65.9106   71.3960 H   0  0  0  0  0  0  0  0  0  0  0  0
    3.1866   67.6348   66.7592 H   0  0  0  0  0  0  0  0  0  0  0  0
    2.5434   69.8109   65.2827 H   0  0  0  0  0  0  0  0  0  0  0  0
    5.1291   68.8803   64.1020 H   0  0  0  0  0  0  0  0  0  0  0  0
    3.6182   68.1771   63.4317 H   0  0  0  0  0  0  0  0  0  0  0  0
    3.8574   69.9574   63.4317 H   0  0  0  0  0  0  0  0  0  0  0  0
    4.3465   70.5175   69.7757 H   0  0  0  0  0  0  0  0  0  0  0  0
    6.6801   71.1555   69.1860 H   0  0  0  0  0  0  0  0  0  0  0  0
    7.5186   70.8221   66.8659 H   0  0  0  0  0  0  0  0  0  0  0  0
    6.0178   69.8770   65.1244 H   0  0  0  0  0  0  0  0  0  0  0  0
    1.5502   70.5142   69.4894 H   0  0  0  0  0  0  0  0  0  0  0  0
    1.9285   71.4213   67.9858 H   0  0  0  0  0  0  0  0  0  0  0  0
    0.6236   70.1868   67.9858 H   0  0  0  0  0  0  0  0  0  0  0  0
  2  1  2  0
  3  1  2  0
  4  1  1  0
  5  4  1  0
  6  5  2  0
  7  5  1  0
  8  7  1  0
  9  8  1  0
 10  9  2  0
 11 10  1  0
 12 11  2  0
 13 12  1  0
 14 13  2  0
 14  9  1  0
 15  1  1  0
 16 15  1  0
 17 16  1  0
 19 18  2  0
 20 19  1  0
 21 20  2  0
 22 21  1  0
 23 16  1  0
 23 18  1  0
 23 22  2  0
 25 24  1  0
 25 18  1  0
  4 26  1  0
  8 27  1  0
  8 28  1  0
 10 29  1  0
 11 30  1  0
 12 31  1  0
 13 32  1  0
 14 33  1  0
 15 34  1  0
 16 35  1  6
 17 36  1  0
 17 37  1  0
 17 38  1  0
 19 39  1  0
 20 40  1  0
 21 41  1  0
 22 42  1  0
 24 43  1  0
 24 44  1  0
 24 45  1  0
M  END
>  <score>  (1) 
-9.696

$$$$
=
     RDKit          3D

 45 46  0  0  0  0  0  0  0  0999 V2000
   -0.5670   68.1230   66.5820 S   0  0  0  0  0  6  0  0  0  0  0  0
   -1.2300   67.1570   67.4220 O   0  0  0  0  0  0  0  0  0  0  0  0
   -1.2810   69.1640   65.8850 O   0  0  0  0  0  0  0  0  0  0  0  0
    0.7210   68.7730   67.3520 N   0  0  0  0  0  0  0  0  0  0  0  0
    1.5110   68.0500   68.2300 C   0  0  0  0  0  0  0  0  0  0  0  0
    1.5450   66.8350   68.3150 O   0  0  0  0  0  0  0  0  0  0  0  0
    2.2330   68.8970   69.0020 O   0  0  0  0  0  0  0  0  0  0  0  0
    2.4840   70.1660   68.3990 C   0  0  0  0  0  0  0  0  0  0  0  0
    3.9420   70.1840   68.0140 C   0  0  0  0  0  0  0  0  0  0  0  0
    4.3440   69.7640   66.7390 C   0  0  0  0  0  0  0  0  0  0  0  0
    5.6890   69.8130   66.3690 C   0  0  0  0  0  0  0  0  0  0  0  0
    6.6410   70.2900   67.2650 C   0  0  0  0  0  0  0  0  0  0  0  0
    6.2520   70.7220   68.5330 C   0  0  0  0  0  0  0  0  0  0  0  0
    4.9070   70.6740   68.9040 C   0  0  0  0  0  0  0  0  0  0  0  0
    0.2470   67.2210   65.4340 N   0  0  0  0  0  0  0  0  0  0  0  0
    1.3280   67.8880   64.6750 C   0  0  2  0  0  0  0  0  0  0  0  0
    0.7380   68.5010   63.3990 C   0  0  0  0  0  0  0  0  0  0  0  0
    3.6740   67.3360   63.8220 C   0  0  0  0  0  0  0  0  0  0  0  0
    4.7070   66.4170   63.6030 C   0  0  0  0  0  0  0  0  0  0  0  0
    4.5590   65.0810   63.9750 C   0  0  0  0  0  0  0  0  0  0  0  0
    3.3840   64.6520   64.5810 C   0  0  0  0  0  0  0  0  0  0  0  0
    2.3490   65.5580   64.8070 C   0  0  0  0  0  0  0  0  0  0  0  0
    2.4640   66.9060   64.4140 C   0  0  0  0  0  0  0  0  0  0  0  0
    4.5320   69.0450   62.3810 C   0  0  0  0  0  0  0  0  0  0  0  0
    3.7600   68.6750   63.5230 O   0  0  0  0  0  0  0  0  0  0  0  0
    0.9542   69.7608   67.1767 H   0  0  0  0  0  0  0  0  0  0  0  0
    1.8547   70.2920   67.5056 H   0  0  0  0  0  0  0  0  0  0  0  0
    2.2486   70.9865   69.0928 H   0  0  0  0  0  0  0  0  0  0  0  0
    3.5943   69.3930   66.0246 H   0  0  0  0  0  0  0  0  0  0  0  0
    5.9966   69.4744   65.3686 H   0  0  0  0  0  0  0  0  0  0  0  0
    7.7009   70.3264   66.9731 H   0  0  0  0  0  0  0  0  0  0  0  0
    7.0047   71.1003   69.2403 H   0  0  0  0  0  0  0  0  0  0  0  0
    4.6027   71.0232   69.9017 H   0  0  0  0  0  0  0  0  0  0  0  0
    0.6639   66.4124   65.9170 H   0  0  0  0  0  0  0  0  0  0  0  0
    1.7666   68.7124   65.2563 H   0  0  0  0  0  0  0  0  0  0  0  0
   -0.0014   69.2692   63.6693 H   0  0  0  0  0  0  0  0  0  0  0  0
    1.5432   68.9595   62.8063 H   0  0  0  0  0  0  0  0  0  0  0  0
    0.2490   67.7139   62.8063 H   0  0  0  0  0  0  0  0  0  0  0  0
    5.6438   66.7515   63.1333 H   0  0  0  0  0  0  0  0  0  0  0  0
    5.3735   64.3656   63.7885 H   0  0  0  0  0  0  0  0  0  0  0  0
    3.2711   63.5999   64.8816 H   0  0  0  0  0  0  0  0  0  0  0  0
    1.4276   65.2149   65.3002 H   0  0  0  0  0  0  0  0  0  0  0  0
    5.4786   69.4987   62.7097 H   0  0  0  0  0  0  0  0  0  0  0  0
    4.7444   68.1508   61.7766 H   0  0  0  0  0  0  0  0  0  0  0  0
    3.9680   69.7707   61.7766 H   0  0  0  0  0  0  0  0  0  0  0  0
  2  1  2  0
  3  1  2  0
  4  1  1  0
  5  4  1  0
  6  5  2  0
  7  5  1  0
  8  7  1  0
  9  8  1  0
 10  9  2  0
 11 10  1  0
 12 11  2  0
 13 12  1  0
 14 13  2  0
 14  9  1  0
 15  1  1  0
 16 15  1  0
 17 16  1  0
 19 18  2  0
 20 19  1  0
 21 20  2  0
 22 21  1  0
 23 16  1  0
 23 18  1  0
 23 22  2  0
 25 24  1  0
 25 18  1  0
  4 26  1  0
  8 27  1  0
  8 28  1  0
 10 29  1  0
 11 30  1  0
 12 31  1  0
 13 32  1  0
 14 33  1  0
 15 34  1  0
 16 35  1  1
 17 36  1  0
 17 37  1  0
 17 38  1  0
 19 39  1  0
 20 40  1  0
 21 41  1  0
 22 42  1  0
 24 43  1  0
 24 44  1  0
 24 45  1  0
M  END
>  <score>  (2) 
-9.268

$$$$
=
     RDKit          3D

 45 46  0  0  0  0  0  0  0  0999 V2000
   -0.1850   67.9840   67.1680 S   0  0  0  0  0  6  0  0  0  0  0  0
   -0.9700   67.6960   65.9940 O   0  0  0  0  0  0  0  0  0  0  0  0
   -0.2960   69.2280   67.8890 O   0  0  0  0  0  0  0  0  0  0  0  0
   -0.2480   66.7390   68.2260 N   0  0  0  0  0  0  0  0  0  0  0  0
    0.7150   66.5360   69.2010 C   0  0  0  0  0  0  0  0  0  0  0  0
    1.5220   67.3650   69.5810 O   0  0  0  0  0  0  0  0  0  0  0  0
    0.6420   65.2640   69.6600 O   0  0  0  0  0  0  0  0  0  0  0  0
    1.4740   65.0030   70.7900 C   0  0  0  0  0  0  0  0  0  0  0  0
    2.3810   63.8610   70.4080 C   0  0  0  0  0  0  0  0  0  0  0  0
    1.8710   62.7480   69.7240 C   0  0  0  0  0  0  0  0  0  0  0  0
    2.7150   61.7050   69.3390 C   0  0  0  0  0  0  0  0  0  0  0  0
    4.0770   61.7690   69.6260 C   0  0  0  0  0  0  0  0  0  0  0  0
    4.5980   62.8760   70.2950 C   0  0  0  0  0  0  0  0  0  0  0  0
    3.7540   63.9190   70.6800 C   0  0  0  0  0  0  0  0  0  0  0  0
    1.4070   67.8300   66.6810 N   0  0  0  0  0  0  0  0  0  0  0  0
    1.8770   68.7000   65.5800 C   0  0  2  0  0  0  0  0  0  0  0  0
    1.6490   67.9830   64.2440 C   0  0  0  0  0  0  0  0  0  0  0  0
    3.7200   69.7120   67.0330 C   0  0  0  0  0  0  0  0  0  0  0  0
    5.0610   70.0650   67.2330 C   0  0  0  0  0  0  0  0  0  0  0  0
    6.0150   69.8110   66.2480 C   0  0  0  0  0  0  0  0  0  0  0  0
    5.6440   69.1920   65.0600 C   0  0  0  0  0  0  0  0  0  0  0  0
    4.3130   68.8340   64.8510 C   0  0  0  0  0  0  0  0  0  0  0  0
    3.3260   69.1050   65.8190 C   0  0  0  0  0  0  0  0  0  0  0  0
    3.0440   70.6860   69.1140 C   0  0  0  0  0  0  0  0  0  0  0  0
    2.7320   69.8890   67.9720 O   0  0  0  0  0  0  0  0  0  0  0  0
   -1.0360   66.0785   68.1651 H   0  0  0  0  0  0  0  0  0  0  0  0
    2.0701   65.8943   71.0354 H   0  0  0  0  0  0  0  0  0  0  0  0
    0.8709   64.7495   71.6743 H   0  0  0  0  0  0  0  0  0  0  0  0
    0.7976   62.6965   69.4891 H   0  0  0  0  0  0  0  0  0  0  0  0
    2.3049   60.8326   68.8091 H   0  0  0  0  0  0  0  0  0  0  0  0
    4.7416   60.9459   69.3247 H   0  0  0  0  0  0  0  0  0  0  0  0
    5.6737   62.9273   70.5193 H   0  0  0  0  0  0  0  0  0  0  0  0
    4.1704   64.7936   71.2012 H   0  0  0  0  0  0  0  0  0  0  0  0
    1.9996   68.0241   67.5008 H   0  0  0  0  0  0  0  0  0  0  0  0
    1.3017   69.6369   65.5449 H   0  0  0  0  0  0  0  0  0  0  0  0
    1.3206   66.9504   64.4334 H   0  0  0  0  0  0  0  0  0  0  0  0
    0.8755   68.5143   63.6701 H   0  0  0  0  0  0  0  0  0  0  0  0
    2.5873   67.9699   63.6701 H   0  0  0  0  0  0  0  0  0  0  0  0
    5.3638   70.5464   68.1746 H   0  0  0  0  0  0  0  0  0  0  0  0
    7.0634   70.1011   66.4116 H   0  0  0  0  0  0  0  0  0  0  0  0
    6.3986   68.9852   64.2868 H   0  0  0  0  0  0  0  0  0  0  0  0
    4.0287   68.3316   63.9147 H   0  0  0  0  0  0  0  0  0  0  0  0
    2.8216   70.1180   70.0294 H   0  0  0  0  0  0  0  0  0  0  0  0
    4.1118   70.9498   69.0964 H   0  0  0  0  0  0  0  0  0  0  0  0
    2.4391   71.6046   69.0964 H   0  0  0  0  0  0  0  0  0  0  0  0
  2  1  2  0
  3  1  2  0
  4  1  1  0
  5  4  1  0
  6  5  2  0
  7  5  1  0
  8  7  1  0
  9  8  1  0
 10  9  2  0
 11 10  1  0
 12 11  2  0
 13 12  1  0
 14 13  2  0
 14  9  1  0
 15  1  1  0
 16 15  1  0
 17 16  1  0
 19 18  2  0
 20 19  1  0
 21 20  2  0
 22 21  1  0
 23 16  1  0
 23 18  1  0
 23 22  2  0
 25 24  1  0
 25 18  1  0
  4 26  1  0
  8 27  1  0
  8 28  1  0
 10 29  1  0
 11 30  1  0
 12 31  1  0
 13 32  1  0
 14 33  1  0
 15 34  1  0
 16 35  1  6
 17 36  1  0
 17 37  1  0
 17 38  1  0
 19 39  1  0
 20 40  1  0
 21 41  1  0
 22 42  1  0
 24 43  1  0
 24 44  1  0
 24 45  1  0
M  END
>  <score>  (3) 
-9.106

$$$$
=
     RDKit          3D

 45 46  0  0  0  0  0  0  0  0999 V2000
   -0.1700   68.3270   66.3790 S   0  0  0  0  0  6  0  0  0  0  0  0
   -1.3790   68.3580   65.5950 O   0  0  0  0  0  0  0  0  0  0  0  0
    0.2750   69.4520   67.1630 O   0  0  0  0  0  0  0  0  0  0  0  0
   -0.1060   66.9720   67.2930 N   0  0  0  0  0  0  0  0  0  0  0  0
   -1.0750   66.6550   68.2300 C   0  0  0  0  0  0  0  0  0  0  0  0
   -2.1890   67.1450   68.2890 O   0  0  0  0  0  0  0  0  0  0  0  0
   -0.5940   65.7270   69.0920 O   0  0  0  0  0  0  0  0  0  0  0  0
    0.3370   66.2420   70.0430 C   0  0  0  0  0  0  0  0  0  0  0  0
    0.9740   65.0530   70.7160 C   0  0  0  0  0  0  0  0  0  0  0  0
    2.2580   64.6300   70.3440 C   0  0  0  0  0  0  0  0  0  0  0  0
    2.8640   63.5520   70.9900 C   0  0  0  0  0  0  0  0  0  0  0  0
    2.1960   62.8910   72.0190 C   0  0  0  0  0  0  0  0  0  0  0  0
    0.9230   63.3090   72.4050 C   0  0  0  0  0  0  0  0  0  0  0  0
    0.3160   64.3880   71.7600 C   0  0  0  0  0  0  0  0  0  0  0  0
    1.0480   67.9640   65.2930 N   0  0  0  0  0  0  0  0  0  0  0  0
    1.4280   69.0040   64.3120 C   0  0  2  0  0  0  0  0  0  0  0  0
    0.5450   68.8630   63.0660 C   0  0  0  0  0  0  0  0  0  0  0  0
    3.8730   69.0150   65.0580 C   0  0  0  0  0  0  0  0  0  0  0  0
    5.2390   68.9260   64.7630 C   0  0  0  0  0  0  0  0  0  0  0  0
    5.6700   68.7340   63.4500 C   0  0  0  0  0  0  0  0  0  0  0  0
    4.7420   68.6160   62.4220 C   0  0  0  0  0  0  0  0  0  0  0  0
    3.3790   68.7010   62.7030 C   0  0  0  0  0  0  0  0  0  0  0  0
    2.9210   68.9220   64.0170 C   0  0  0  0  0  0  0  0  0  0  0  0
    4.1420   69.9190   67.2590 C   0  0  0  0  0  0  0  0  0  0  0  0
    3.3700   69.1600   66.3290 O   0  0  0  0  0  0  0  0  0  0  0  0
    0.6878   66.3280   67.1663 H   0  0  0  0  0  0  0  0  0  0  0  0
    1.1036   66.8450   69.5344 H   0  0  0  0  0  0  0  0  0  0  0  0
   -0.1655   66.8890   70.7771 H   0  0  0  0  0  0  0  0  0  0  0  0
    2.7918   65.1522   69.5364 H   0  0  0  0  0  0  0  0  0  0  0  0
    3.8692   63.2238   70.6870 H   0  0  0  0  0  0  0  0  0  0  0  0
    2.6729   62.0396   72.5267 H   0  0  0  0  0  0  0  0  0  0  0  0
    0.3966   62.7881   73.2184 H   0  0  0  0  0  0  0  0  0  0  0  0
   -0.6853   64.7186   72.0731 H   0  0  0  0  0  0  0  0  0  0  0  0
    1.8900   67.7354   65.8404 H   0  0  0  0  0  0  0  0  0  0  0  0
    1.2536   70.0110   64.7188 H   0  0  0  0  0  0  0  0  0  0  0  0
   -0.4981   68.6964   63.3728 H   0  0  0  0  0  0  0  0  0  0  0  0
    0.6083   69.7826   62.4658 H   0  0  0  0  0  0  0  0  0  0  0  0
    0.8915   68.0088   62.4658 H   0  0  0  0  0  0  0  0  0  0  0  0
    5.9784   69.0082   65.5732 H   0  0  0  0  0  0  0  0  0  0  0  0
    6.7458   68.6759   63.2281 H   0  0  0  0  0  0  0  0  0  0  0  0
    5.0824   68.4558   61.3883 H   0  0  0  0  0  0  0  0  0  0  0  0
    2.6500   68.5939   61.8863 H   0  0  0  0  0  0  0  0  0  0  0  0
    3.8584   69.6402   68.2846 H   0  0  0  0  0  0  0  0  0  0  0  0
    5.2110   69.7104   67.1046 H   0  0  0  0  0  0  0  0  0  0  0  0
    3.9516   70.9913   67.1046 H   0  0  0  0  0  0  0  0  0  0  0  0
  2  1  2  0
  3  1  2  0
  4  1  1  0
  5  4  1  0
  6  5  2  0
  7  5  1  0
  8  7  1  0
  9  8  1  0
 10  9  2  0
 11 10  1  0
 12 11  2  0
 13 12  1  0
 14 13  2  0
 14  9  1  0
 15  1  1  0
 16 15  1  0
 17 16  1  0
 19 18  2  0
 20 19  1  0
 21 20  2  0
 22 21  1  0
 23 16  1  0
 23 18  1  0
 23 22  2  0
 25 24  1  0
 25 18  1  0
  4 26  1  0
  8 27  1  0
  8 28  1  0
 10 29  1  0
 11 30  1  0
 12 31  1  0
 13 32  1  0
 14 33  1  0
 15 34  1  0
 16 35  1  1
 17 36  1  0
 17 37  1  0
 17 38  1  0
 19 39  1  0
 20 40  1  0
 21 41  1  0
 22 42  1  0
 24 43  1  0
 24 44  1  0
 24 45  1  0
M  END
>  <score>  (4) 
-8.794

$$$$
=
     RDKit          3D

 45 46  0  0  0  0  0  0  0  0999 V2000
    0.5100   65.3860   70.3070 S   0  0  0  0  0  6  0  0  0  0  0  0
    0.0140   66.1500   71.4250 O   0  0  0  0  0  0  0  0  0  0  0  0
   -0.3180   64.4660   69.5690 O   0  0  0  0  0  0  0  0  0  0  0  0
    1.3150   66.3490   69.2590 N   0  0  0  0  0  0  0  0  0  0  0  0
    0.6720   67.1200   68.3050 C   0  0  0  0  0  0  0  0  0  0  0  0
   -0.5120   67.4070   68.3090 O   0  0  0  0  0  0  0  0  0  0  0  0
    1.5530   67.4950   67.3480 O   0  0  0  0  0  0  0  0  0  0  0  0
    1.5160   68.8860   67.0320 C   0  0  0  0  0  0  0  0  0  0  0  0
    2.8510   69.4600   67.4320 C   0  0  0  0  0  0  0  0  0  0  0  0
    3.9250   69.4530   66.5310 C   0  0  0  0  0  0  0  0  0  0  0  0
    5.1520   70.0150   66.8870 C   0  0  0  0  0  0  0  0  0  0  0  0
    5.3150   70.5960   68.1430 C   0  0  0  0  0  0  0  0  0  0  0  0
    4.2510   70.6190   69.0440 C   0  0  0  0  0  0  0  0  0  0  0  0
    3.0230   70.0580   68.6880 C   0  0  0  0  0  0  0  0  0  0  0  0
    1.8060   64.5190   70.9090 N   0  0  0  0  0  0  0  0  0  0  0  0
    1.5420   63.1570   71.4250 C   0  0  2  0  0  0  0  0  0  0  0  0
    0.8740   63.2640   72.8010 C   0  0  0  0  0  0  0  0  0  0  0  0
    3.4490   61.9540   70.2210 C   0  0  0  0  0  0  0  0  0  0  0  0
    4.6390   61.2160   70.2530 C   0  0  0  0  0  0  0  0  0  0  0  0
    5.2280   60.8720   71.4700 C   0  0  0  0  0  0  0  0  0  0  0  0
    4.6430   61.2720   72.6650 C   0  0  0  0  0  0  0  0  0  0  0  0
    3.4590   62.0080   72.6470 C   0  0  0  0  0  0  0  0  0  0  0  0
    2.8310   62.3440   71.4310 C   0  0  0  0  0  0  0  0  0  0  0  0
    3.6490   62.9840   68.0690 C   0  0  0  0  0  0  0  0  0  0  0  0
    2.8330   62.3670   69.0640 O   0  0  0  0  0  0  0  0  0  0  0  0
    2.3431   66.3836   69.3105 H   0  0  0  0  0  0  0  0  0  0  0  0
    1.3522   69.0249   65.9532 H   0  0  0  0  0  0  0  0  0  0  0  0
    0.6951   69.3894   67.5636 H   0  0  0  0  0  0  0  0  0  0  0  0
    3.7998   69.0012   65.5359 H   0  0  0  0  0  0  0  0  0  0  0  0
    5.9909   69.9993   66.1756 H   0  0  0  0  0  0  0  0  0  0  0  0
    6.2830   71.0365   68.4238 H   0  0  0  0  0  0  0  0  0  0  0  0
    4.3791   71.0790   70.0350 H   0  0  0  0  0  0  0  0  0  0  0  0
    2.1839   70.0855   69.3988 H   0  0  0  0  0  0  0  0  0  0  0  0
    2.4971   64.4320   70.1502 H   0  0  0  0  0  0  0  0  0  0  0  0
    0.8440   62.6156   70.7694 H   0  0  0  0  0  0  0  0  0  0  0  0
    1.6332   63.1424   73.5876 H   0  0  0  0  0  0  0  0  0  0  0  0
    0.3968   64.2500   72.9013 H   0  0  0  0  0  0  0  0  0  0  0  0
    0.1127   62.4763   72.9013 H   0  0  0  0  0  0  0  0  0  0  0  0
    5.1132   60.9050   69.3105 H   0  0  0  0  0  0  0  0  0  0  0  0
    6.1570   60.2832   71.4834 H   0  0  0  0  0  0  0  0  0  0  0  0
    5.1132   61.0084   73.6239 H   0  0  0  0  0  0  0  0  0  0  0  0
    3.0080   62.3314   73.5967 H   0  0  0  0  0  0  0  0  0  0  0  0
    4.4354   63.5786   68.5568 H   0  0  0  0  0  0  0  0  0  0  0  0
    4.1120   62.2081   67.4416 H   0  0  0  0  0  0  0  0  0  0  0  0
    3.0286   63.6409   67.4416 H   0  0  0  0  0  0  0  0  0  0  0  0
  2  1  2  0
  3  1  2  0
  4  1  1  0
  5  4  1  0
  6  5  2  0
  7  5  1  0
  8  7  1  0
  9  8  1  0
 10  9  2  0
 11 10  1  0
 12 11  2  0
 13 12  1  0
 14 13  2  0
 14  9  1  0
 15  1  1  0
 16 15  1  0
 17 16  1  0
 19 18  2  0
 20 19  1  0
 21 20  2  0
 22 21  1  0
 23 16  1  0
 23 18  1  0
 23 22  2  0
 25 24  1  0
 25 18  1  0
  4 26  1  0
  8 27  1  0
  8 28  1  0
 10 29  1  0
 11 30  1  0
 12 31  1  0
 13 32  1  0
 14 33  1  0
 15 34  1  0
 16 35  1  6
 17 36  1  0
 17 37  1  0
 17 38  1  0
 19 39  1  0
 20 40  1  0
 21 41  1  0
 22 42  1  0
 24 43  1  0
 24 44  1  0
 24 45  1  0
M  END
>  <score>  (5) 
-8.734

$$$$
=
     RDKit          3D

 45 46  0  0  0  0  0  0  0  0999 V2000
    1.0400   67.4680   66.3060 S   0  0  0  0  0  6  0  0  0  0  0  0
    0.1640   66.7350   67.1850 O   0  0  0  0  0  0  0  0  0  0  0  0
    0.5850   68.0560   65.0720 O   0  0  0  0  0  0  0  0  0  0  0  0
    1.9080   68.5730   67.1440 N   0  0  0  0  0  0  0  0  0  0  0  0
    1.3360   69.6980   67.7150 C   0  0  0  0  0  0  0  0  0  0  0  0
    0.1460   69.8570   67.9240 O   0  0  0  0  0  0  0  0  0  0  0  0
    2.2960   70.6110   67.9920 O   0  0  0  0  0  0  0  0  0  0  0  0
    3.0770   70.3060   69.1460 C   0  0  0  0  0  0  0  0  0  0  0  0
    4.5230   70.4010   68.7310 C   0  0  0  0  0  0  0  0  0  0  0  0
    4.8940   70.1890   67.3960 C   0  0  0  0  0  0  0  0  0  0  0  0
    6.2280   70.3110   67.0040 C   0  0  0  0  0  0  0  0  0  0  0  0
    7.2010   70.6550   67.9390 C   0  0  0  0  0  0  0  0  0  0  0  0
    6.8430   70.8800   69.2680 C   0  0  0  0  0  0  0  0  0  0  0  0
    5.5090   70.7590   69.6610 C   0  0  0  0  0  0  0  0  0  0  0  0
    2.2730   66.4050   65.9270 N   0  0  0  0  0  0  0  0  0  0  0  0
    2.5720   66.1800   64.4960 C   0  0  2  0  0  0  0  0  0  0  0  0
    3.0750   64.7430   64.3100 C   0  0  0  0  0  0  0  0  0  0  0  0
    3.2220   68.0580   62.8880 C   0  0  0  0  0  0  0  0  0  0  0  0
    4.1280   69.0320   62.4520 C   0  0  0  0  0  0  0  0  0  0  0  0
    5.3460   69.2110   63.1090 C   0  0  0  0  0  0  0  0  0  0  0  0
    5.6650   68.4300   64.2130 C   0  0  0  0  0  0  0  0  0  0  0  0
    4.7700   67.4580   64.6570 C   0  0  0  0  0  0  0  0  0  0  0  0
    3.5460   67.2400   63.9940 C   0  0  0  0  0  0  0  0  0  0  0  0
    1.3250   68.9820   61.7570 C   0  0  0  0  0  0  0  0  0  0  0  0
    1.9860   67.8510   62.3220 O   0  0  0  0  0  0  0  0  0  0  0  0
    2.9218   68.4261   67.2515 H   0  0  0  0  0  0  0  0  0  0  0  0
    2.8651   71.0281   69.9483 H   0  0  0  0  0  0  0  0  0  0  0  0
    2.8412   69.3017   69.5279 H   0  0  0  0  0  0  0  0  0  0  0  0
    4.1282   69.9246   66.6519 H   0  0  0  0  0  0  0  0  0  0  0  0
    6.5110   70.1353   65.9557 H   0  0  0  0  0  0  0  0  0  0  0  0
    8.2523   70.7493   67.6292 H   0  0  0  0  0  0  0  0  0  0  0  0
    7.6115   71.1527   70.0062 H   0  0  0  0  0  0  0  0  0  0  0  0
    5.2294   70.9460   70.7083 H   0  0  0  0  0  0  0  0  0  0  0  0
    3.1327   66.7613   66.3685 H   0  0  0  0  0  0  0  0  0  0  0  0
    1.6649   66.2861   63.8828 H   0  0  0  0  0  0  0  0  0  0  0  0
    3.2368   64.2808   65.2950 H   0  0  0  0  0  0  0  0  0  0  0  0
    2.3268   64.1621   63.7508 H   0  0  0  0  0  0  0  0  0  0  0  0
    4.0222   64.7556   63.7508 H   0  0  0  0  0  0  0  0  0  0  0  0
    3.8779   69.6610   61.5849 H   0  0  0  0  0  0  0  0  0  0  0  0
    6.0553   69.9722   62.7520 H   0  0  0  0  0  0  0  0  0  0  0  0
    6.6216   68.5784   64.7354 H   0  0  0  0  0  0  0  0  0  0  0  0
    5.0233   66.8515   65.5390 H   0  0  0  0  0  0  0  0  0  0  0  0
    0.9479   69.6273   62.5641 H   0  0  0  0  0  0  0  0  0  0  0  0
    2.0342   69.5486   61.1356 H   0  0  0  0  0  0  0  0  0  0  0  0
    0.4833   68.6422   61.1356 H   0  0  0  0  0  0  0  0  0  0  0  0
  2  1  2  0
  3  1  2  0
  4  1  1  0
  5  4  1  0
  6  5  2  0
  7  5  1  0
  8  7  1  0
  9  8  1  0
 10  9  2  0
 11 10  1  0
 12 11  2  0
 13 12  1  0
 14 13  2  0
 14  9  1  0
 15  1  1  0
 16 15  1  0
 17 16  1  0
 19 18  2  0
 20 19  1  0
 21 20  2  0
 22 21  1  0
 23 16  1  0
 23 18  1  0
 23 22  2  0
 25 24  1  0
 25 18  1  0
  4 26  1  0
  8 27  1  0
  8 28  1  0
 10 29  1  0
 11 30  1  0
 12 31  1  0
 13 32  1  0
 14 33  1  0
 15 34  1  0
 16 35  1  6
 17 36  1  0
 17 37  1  0
 17 38  1  0
 19 39  1  0
 20 40  1  0
 21 41  1  0
 22 42  1  0
 24 43  1  0
 24 44  1  0
 24 45  1  0
M  END
>  <score>  (6) 
-8.704

$$$$
=
     RDKit          3D

 45 46  0  0  0  0  0  0  0  0999 V2000
   -0.1210   68.0390   67.0060 S   0  0  0  0  0  6  0  0  0  0  0  0
   -0.7970   67.7900   65.7580 O   0  0  0  0  0  0  0  0  0  0  0  0
   -0.1540   69.3220   67.6640 O   0  0  0  0  0  0  0  0  0  0  0  0
   -0.4600   66.8650   68.0940 N   0  0  0  0  0  0  0  0  0  0  0  0
    0.4020   66.5280   69.1240 C   0  0  0  0  0  0  0  0  0  0  0  0
    1.3270   67.2110   69.5240 O   0  0  0  0  0  0  0  0  0  0  0  0
    0.0760   65.3080   69.6140 O   0  0  0  0  0  0  0  0  0  0  0  0
    0.5000   65.0860   70.9580 C   0  0  0  0  0  0  0  0  0  0  0  0
    1.4920   63.9520   70.9210 C   0  0  0  0  0  0  0  0  0  0  0  0
    2.8200   64.1820   70.5350 C   0  0  0  0  0  0  0  0  0  0  0  0
    3.7480   63.1400   70.5330 C   0  0  0  0  0  0  0  0  0  0  0  0
    3.3600   61.8610   70.9240 C   0  0  0  0  0  0  0  0  0  0  0  0
    2.0450   61.6210   71.3210 C   0  0  0  0  0  0  0  0  0  0  0  0
    1.1160   62.6630   71.3240 C   0  0  0  0  0  0  0  0  0  0  0  0
    1.4840   67.6680   66.7180 N   0  0  0  0  0  0  0  0  0  0  0  0
    2.1760   68.4040   65.6370 C   0  0  2  0  0  0  0  0  0  0  0  0
    2.5010   67.4300   64.4980 C   0  0  0  0  0  0  0  0  0  0  0  0
    4.5180   69.3940   65.3770 C   0  0  0  0  0  0  0  0  0  0  0  0
    5.6250   70.0650   65.9100 C   0  0  0  0  0  0  0  0  0  0  0  0
    5.6290   70.4800   67.2420 C   0  0  0  0  0  0  0  0  0  0  0  0
    4.5230   70.2410   68.0500 C   0  0  0  0  0  0  0  0  0  0  0  0
    3.4140   69.5760   67.5290 C   0  0  0  0  0  0  0  0  0  0  0  0
    3.3990   69.1220   66.1960 C   0  0  0  0  0  0  0  0  0  0  0  0
    5.4710   69.3840   63.1800 C   0  0  0  0  0  0  0  0  0  0  0  0
    4.4220   68.9920   64.0650 O   0  0  0  0  0  0  0  0  0  0  0  0
   -1.3512   66.3557   68.0093 H   0  0  0  0  0  0  0  0  0  0  0  0
    0.9764   65.9927   71.3593 H   0  0  0  0  0  0  0  0  0  0  0  0
   -0.3547   64.8412   71.6057 H   0  0  0  0  0  0  0  0  0  0  0  0
    3.1329   65.1919   70.2313 H   0  0  0  0  0  0  0  0  0  0  0  0
    4.7862   63.3289   70.2225 H   0  0  0  0  0  0  0  0  0  0  0  0
    4.0914   61.0394   70.9197 H   0  0  0  0  0  0  0  0  0  0  0  0
    1.7398   60.6109   71.6317 H   0  0  0  0  0  0  0  0  0  0  0  0
    0.0815   62.4713   71.6449 H   0  0  0  0  0  0  0  0  0  0  0  0
    2.0020   67.8441   67.5907 H   0  0  0  0  0  0  0  0  0  0  0  0
    1.5285   69.1878   65.2169 H   0  0  0  0  0  0  0  0  0  0  0  0
    2.8225   66.4664   64.9201 H   0  0  0  0  0  0  0  0  0  0  0  0
    1.6048   67.2782   63.8785 H   0  0  0  0  0  0  0  0  0  0  0  0
    3.3088   67.8467   63.8785 H   0  0  0  0  0  0  0  0  0  0  0  0
    6.4990   70.2667   65.2733 H   0  0  0  0  0  0  0  0  0  0  0  0
    6.5084   70.9970   67.6535 H   0  0  0  0  0  0  0  0  0  0  0  0
    4.5230   70.5758   69.0978 H   0  0  0  0  0  0  0  0  0  0  0  0
    2.5365   69.4031   68.1694 H   0  0  0  0  0  0  0  0  0  0  0  0
    6.3428   69.7098   63.7663 H   0  0  0  0  0  0  0  0  0  0  0  0
    5.7537   68.5308   62.5458 H   0  0  0  0  0  0  0  0  0  0  0  0
    5.1249   70.2135   62.5458 H   0  0  0  0  0  0  0  0  0  0  0  0
  2  1  2  0
  3  1  2  0
  4  1  1  0
  5  4  1  0
  6  5  2  0
  7  5  1  0
  8  7  1  0
  9  8  1  0
 10  9  2  0
 11 10  1  0
 12 11  2  0
 13 12  1  0
 14 13  2  0
 14  9  1  0
 15  1  1  0
 16 15  1  0
 17 16  1  0
 19 18  2  0
 20 19  1  0
 21 20  2  0
 22 21  1  0
 23 16  1  0
 23 18  1  0
 23 22  2  0
 25 24  1  0
 25 18  1  0
  4 26  1  0
  8 27  1  0
  8 28  1  0
 10 29  1  0
 11 30  1  0
 12 31  1  0
 13 32  1  0
 14 33  1  0
 15 34  1  0
 16 35  1  6
 17 36  1  0
 17 37  1  0
 17 38  1  0
 19 39  1  0
 20 40  1  0
 21 41  1  0
 22 42  1  0
 24 43  1  0
 24 44  1  0
 24 45  1  0
M  END
>  <score>  (7) 
-8.671

$$$$
=
     RDKit          3D

 45 46  0  0  0  0  0  0  0  0999 V2000
    0.3930   68.0290   66.3110 S   0  0  0  0  0  6  0  0  0  0  0  0
    0.6430   67.1310   65.2120 O   0  0  0  0  0  0  0  0  0  0  0  0
   -0.7890   68.8500   66.3870 O   0  0  0  0  0  0  0  0  0  0  0  0
    0.6170   67.2700   67.7420 N   0  0  0  0  0  0  0  0  0  0  0  0
   -0.4300   66.7570   68.4900 C   0  0  0  0  0  0  0  0  0  0  0  0
   -1.5550   66.5420   68.0760 O   0  0  0  0  0  0  0  0  0  0  0  0
   -0.0240   66.5480   69.7650 O   0  0  0  0  0  0  0  0  0  0  0  0
    1.3650   66.2470   69.8930 C   0  0  0  0  0  0  0  0  0  0  0  0
    1.4580   64.8630   70.4820 C   0  0  0  0  0  0  0  0  0  0  0  0
    0.3020   64.1940   70.9100 C   0  0  0  0  0  0  0  0  0  0  0  0
    0.3820   62.8990   71.4230 C   0  0  0  0  0  0  0  0  0  0  0  0
    1.6150   62.2570   71.5060 C   0  0  0  0  0  0  0  0  0  0  0  0
    2.7700   62.9070   71.0730 C   0  0  0  0  0  0  0  0  0  0  0  0
    2.6920   64.2020   70.5590 C   0  0  0  0  0  0  0  0  0  0  0  0
    1.7140   69.0520   66.3510 N   0  0  0  0  0  0  0  0  0  0  0  0
    2.3500   69.3040   67.6640 C   0  0  2  0  0  0  0  0  0  0  0  0
    1.5080   70.3250   68.4390 C   0  0  0  0  0  0  0  0  0  0  0  0
    4.4610   69.5090   66.2370 C   0  0  0  0  0  0  0  0  0  0  0  0
    5.7900   69.9180   66.0770 C   0  0  0  0  0  0  0  0  0  0  0  0
    6.4670   70.5530   67.1190 C   0  0  0  0  0  0  0  0  0  0  0  0
    5.8200   70.7960   68.3250 C   0  0  0  0  0  0  0  0  0  0  0  0
    4.4960   70.3950   68.4950 C   0  0  0  0  0  0  0  0  0  0  0  0
    3.8000   69.7280   67.4680 C   0  0  0  0  0  0  0  0  0  0  0  0
    4.1740   69.0650   63.9020 C   0  0  0  0  0  0  0  0  0  0  0  0
    3.7150   68.9190   65.2450 O   0  0  0  0  0  0  0  0  0  0  0  0
    1.5767   67.1692   68.1022 H   0  0  0  0  0  0  0  0  0  0  0  0
    1.8504   66.2720   68.9062 H   0  0  0  0  0  0  0  0  0  0  0  0
    1.8711   66.9837   70.5342 H   0  0  0  0  0  0  0  0  0  0  0  0
   -0.6753   64.6942   70.8407 H   0  0  0  0  0  0  0  0  0  0  0  0
   -0.5294   62.3848   71.7621 H   0  0  0  0  0  0  0  0  0  0  0  0
    1.6777   61.2371   71.9132 H   0  0  0  0  0  0  0  0  0  0  0  0
    3.7434   62.3986   71.1366 H   0  0  0  0  0  0  0  0  0  0  0  0
    3.6051   64.7077   70.2118 H   0  0  0  0  0  0  0  0  0  0  0  0
    2.4332   68.6499   65.7330 H   0  0  0  0  0  0  0  0  0  0  0  0
    2.3818   68.3860   68.2692 H   0  0  0  0  0  0  0  0  0  0  0  0
    1.6401   70.1648   69.5192 H   0  0  0  0  0  0  0  0  0  0  0  0
    1.8329   71.3427   68.1768 H   0  0  0  0  0  0  0  0  0  0  0  0
    0.4471   70.1998   68.1768 H   0  0  0  0  0  0  0  0  0  0  0  0
    6.3051   69.7374   65.1220 H   0  0  0  0  0  0  0  0  0  0  0  0
    7.5143   70.8617   66.9858 H   0  0  0  0  0  0  0  0  0  0  0  0
    6.3517   71.3036   69.1433 H   0  0  0  0  0  0  0  0  0  0  0  0
    3.9860   70.6029   69.4472 H   0  0  0  0  0  0  0  0  0  0  0  0
    5.2222   69.3984   63.9070 H   0  0  0  0  0  0  0  0  0  0  0  0
    4.0991   68.0987   63.3818 H   0  0  0  0  0  0  0  0  0  0  0  0
    3.5546   69.8105   63.3818 H   0  0  0  0  0  0  0  0  0  0  0  0
  2  1  2  0
  3  1  2  0
  4  1  1  0
  5  4  1  0
  6  5  2  0
  7  5  1  0
  8  7  1  0
  9  8  1  0
 10  9  2  0
 11 10  1  0
 12 11  2  0
 13 12  1  0
 14 13  2  0
 14  9  1  0
 15  1  1  0
 16 15  1  0
 17 16  1  0
 19 18  2  0
 20 19  1  0
 21 20  2  0
 22 21  1  0
 23 16  1  0
 23 18  1  0
 23 22  2  0
 25 24  1  0
 25 18  1  0
  4 26  1  0
  8 27  1  0
  8 28  1  0
 10 29  1  0
 11 30  1  0
 12 31  1  0
 13 32  1  0
 14 33  1  0
 15 34  1  0
 16 35  1  1
 17 36  1  0
 17 37  1  0
 17 38  1  0
 19 39  1  0
 20 40  1  0
 21 41  1  0
 22 42  1  0
 24 43  1  0
 24 44  1  0
 24 45  1  0
M  END
>  <score>  (8) 
-8.499

$$$$
=
     RDKit          3D

 45 46  0  0  0  0  0  0  0  0999 V2000
    1.1750   64.1840   70.6040 S   0  0  0  0  0  6  0  0  0  0  0  0
    1.2730   63.9320   72.0200 O   0  0  0  0  0  0  0  0  0  0  0  0
    0.0240   63.8010   69.8260 O   0  0  0  0  0  0  0  0  0  0  0  0
    1.5660   65.7350   70.2630 N   0  0  0  0  0  0  0  0  0  0  0  0
    0.7100   66.5930   69.5930 C   0  0  0  0  0  0  0  0  0  0  0  0
   -0.4870   66.4220   69.4410 O   0  0  0  0  0  0  0  0  0  0  0  0
    1.4050   67.6490   69.1070 O   0  0  0  0  0  0  0  0  0  0  0  0
    0.9020   68.1630   67.8750 C   0  0  0  0  0  0  0  0  0  0  0  0
    2.0950   68.6080   67.0680 C   0  0  0  0  0  0  0  0  0  0  0  0
    2.1950   68.2780   65.7090 C   0  0  0  0  0  0  0  0  0  0  0  0
    3.2820   68.7180   64.9520 C   0  0  0  0  0  0  0  0  0  0  0  0
    4.2720   69.4990   65.5430 C   0  0  0  0  0  0  0  0  0  0  0  0
    4.1780   69.8430   66.8910 C   0  0  0  0  0  0  0  0  0  0  0  0
    3.0910   69.4030   67.6490 C   0  0  0  0  0  0  0  0  0  0  0  0
    2.5060   63.4290   69.9310 N   0  0  0  0  0  0  0  0  0  0  0  0
    3.5580   62.9410   70.8500 C   0  0  2  0  0  0  0  0  0  0  0  0
    4.8990   63.5700   70.4550 C   0  0  0  0  0  0  0  0  0  0  0  0
    3.6620   60.6990   72.0740 C   0  0  0  0  0  0  0  0  0  0  0  0
    3.6650   59.2990   72.0570 C   0  0  0  0  0  0  0  0  0  0  0  0
    3.5720   58.6040   70.8510 C   0  0  0  0  0  0  0  0  0  0  0  0
    3.4620   59.2990   69.6530 C   0  0  0  0  0  0  0  0  0  0  0  0
    3.4550   60.6930   69.6570 C   0  0  0  0  0  0  0  0  0  0  0  0
    3.5760   61.4170   70.8590 C   0  0  0  0  0  0  0  0  0  0  0  0
    2.5960   61.3570   74.1150 C   0  0  0  0  0  0  0  0  0  0  0  0
    3.7060   61.4530   73.2220 O   0  0  0  0  0  0  0  0  0  0  0  0
    2.4872   66.0883   70.5588 H   0  0  0  0  0  0  0  0  0  0  0  0
    0.3507   67.3792   67.3348 H   0  0  0  0  0  0  0  0  0  0  0  0
    0.2101   69.0000   68.0502 H   0  0  0  0  0  0  0  0  0  0  0  0
    1.4113   67.6680   65.2360 H   0  0  0  0  0  0  0  0  0  0  0  0
    3.3567   68.4478   63.8883 H   0  0  0  0  0  0  0  0  0  0  0  0
    5.1287   69.8448   64.9460 H   0  0  0  0  0  0  0  0  0  0  0  0
    4.9598   70.4607   67.3571 H   0  0  0  0  0  0  0  0  0  0  0  0
    3.0164   69.6828   68.7102 H   0  0  0  0  0  0  0  0  0  0  0  0
    2.1624   62.6173   69.3981 H   0  0  0  0  0  0  0  0  0  0  0  0
    3.3497   63.2491   71.8852 H   0  0  0  0  0  0  0  0  0  0  0  0
    5.4617   63.8339   71.3626 H   0  0  0  0  0  0  0  0  0  0  0  0
    5.4802   62.8506   69.8595 H   0  0  0  0  0  0  0  0  0  0  0  0
    4.7174   64.4768   69.8595 H   0  0  0  0  0  0  0  0  0  0  0  0
    3.7413   58.7423   73.0027 H   0  0  0  0  0  0  0  0  0  0  0  0
    3.5858   57.5041   70.8485 H   0  0  0  0  0  0  0  0  0  0  0  0
    3.3806   58.7503   68.7031 H   0  0  0  0  0  0  0  0  0  0  0  0
    3.3533   61.2363   68.7060 H   0  0  0  0  0  0  0  0  0  0  0  0
    2.9572   61.3882   75.1536 H   0  0  0  0  0  0  0  0  0  0  0  0
    1.9105   62.1992   73.9397 H   0  0  0  0  0  0  0  0  0  0  0  0
    2.0652   60.4096   73.9397 H   0  0  0  0  0  0  0  0  0  0  0  0
  2  1  2  0
  3  1  2  0
  4  1  1  0
  5  4  1  0
  6  5  2  0
  7  5  1  0
  8  7  1  0
  9  8  1  0
 10  9  2  0
 11 10  1  0
 12 11  2  0
 13 12  1  0
 14 13  2  0
 14  9  1  0
 15  1  1  0
 16 15  1  0
 17 16  1  0
 19 18  2  0
 20 19  1  0
 21 20  2  0
 22 21  1  0
 23 16  1  0
 23 18  1  0
 23 22  2  0
 25 24  1  0
 25 18  1  0
  4 26  1  0
  8 27  1  0
  8 28  1  0
 10 29  1  0
 11 30  1  0
 12 31  1  0
 13 32  1  0
 14 33  1  0
 15 34  1  0
 16 35  1  1
 17 36  1  0
 17 37  1  0
 17 38  1  0
 19 39  1  0
 20 40  1  0
 21 41  1  0
 22 42  1  0
 24 43  1  0
 24 44  1  0
 24 45  1  0
M  END
>  <score>  (9) 
-8.402

$$$$
