=
     RDKit          3D

143149  0  0  0  0  0  0  0  0999 V2000
   -0.5740   59.2950   75.5320 C   0  0  1  0  0  0  0  0  0  0  0  0
    0.6190   58.5640   76.1910 C   0  0  0  0  0  0  0  0  0  0  0  0
   -1.1480   58.4480   74.4020 C   0  0  0  0  0  0  0  0  0  0  0  0
   -2.0290   57.4380   75.1100 C   0  0  0  0  0  0  0  0  0  0  0  0
   -2.3590   58.0820   76.4580 C   0  0  1  0  0  0  0  0  0  0  0  0
   -1.6480   59.3430   76.4910 O   0  0  0  0  0  0  0  0  0  0  0  0
   -3.8660   58.2660   76.7610 C   0  0  2  0  0  0  0  0  0  0  0  0
   -4.0970   58.4110   78.2750 C   0  0  0  0  0  0  0  0  0  0  0  0
   -4.7510   57.1880   76.1450 C   0  0  0  0  0  0  0  0  0  0  0  0
   -6.0740   57.8930   75.9770 C   0  0  0  0  0  0  0  0  0  0  0  0
   -5.6760   59.3490   75.7170 C   0  0  1  0  0  0  0  0  0  0  0  0
   -4.3140   59.4950   76.1500 O   0  0  0  0  0  0  0  0  0  0  0  0
   -5.7600   59.7320   74.2350 C   0  0  0  0  0  0  0  0  0  0  0  0
   -7.1350   60.3040   73.9330 C   0  0  1  0  0  0  0  0  0  0  0  0
   -7.4460   61.5440   74.8080 C   0  0  2  0  0  0  0  0  0  0  0  0
   -6.5720   61.5320   76.0950 C   0  0  2  0  0  0  0  0  0  0  0  0
   -6.5380   60.1600   76.5240 O   0  0  0  0  0  0  0  0  0  0  0  0
   -8.9580   61.5660   75.0720 C   0  0  0  0  0  0  0  0  0  0  0  0
   -7.0290   62.4440   77.2720 C   0  0  1  0  0  0  0  0  0  0  0  0
   -7.5840   61.5890   78.4380 C   0  0  0  0  0  0  0  0  0  0  0  0
   -5.9170   63.3860   77.8450 C   0  0  2  0  0  0  0  0  0  0  0  0
   -6.2890   64.7600   77.6600 O   0  0  0  0  0  0  0  0  0  0  0  0
   -5.6670   65.5170   76.6120 C   0  0  2  0  0  0  0  0  0  0  0  0
   -4.1170   65.4980   76.7550 C   0  0  2  0  0  0  0  0  0  0  0  0
   -3.6450   64.4060   77.7400 C   0  0  1  0  0  0  0  0  0  0  0  0
   -4.4410   63.1030   77.4850 C   0  0  1  0  0  0  0  0  0  0  0  0
   -3.5160   66.8620   77.1290 C   0  0  0  0  0  0  0  0  0  0  0  0
   -2.2350   64.1890   77.5350 O   0  0  0  0  0  0  0  0  0  0  0  0
   -1.9520   63.6220   76.2600 C   0  0  0  0  0  0  0  0  0  0  0  0
   -4.0030   62.0100   78.3180 O   0  0  0  0  0  0  0  0  0  0  0  0
   -4.1340   62.2420   79.7140 C   0  0  0  0  0  0  0  0  0  0  0  0
   -6.1680   66.8440   76.8070 O   0  0  0  0  0  0  0  0  0  0  0  0
   -6.1520   64.9940   75.2570 C   0  0  0  0  0  0  0  0  0  0  0  0
   -7.4720   65.6080   74.8270 C   0  0  0  0  0  0  0  0  0  0  0  0
   -8.4960   65.0910   75.3620 O   0  0  0  0  0  0  0  0  0  0  0  0
   -7.3810   66.5510   73.9960 O   0  0  0  0  0  1  0  0  0  0  0  0
   -7.2020   60.6480   72.5470 O   0  0  0  0  0  0  0  0  0  0  0  0
    1.0540   61.4060   75.8080 C   0  0  1  0  0  0  0  0  0  0  0  0
    2.2720   60.7760   75.1690 C   0  0  0  0  0  0  0  0  0  0  0  0
    1.7990   60.4020   73.7630 C   0  0  1  0  0  0  0  0  0  0  0  0
    0.3790   60.6830   73.7190 O   0  0  0  0  0  0  0  0  0  0  0  0
   -0.1070   60.7180   75.0880 C   0  0  1  0  0  0  0  0  0  0  0  0
    2.5240   61.1550   72.6250 C   0  0  1  0  0  0  0  0  0  0  0  0
    2.7780   60.2260   71.5650 O   0  0  0  0  0  0  0  0  0  0  0  0
    3.5550   60.7310   70.4840 C   0  0  1  0  0  0  0  0  0  0  0  0
    3.6970   59.5680   69.4990 C   0  0  0  0  0  0  0  0  0  0  0  0
    2.8460   61.9410   69.8330 C   0  0  1  0  0  0  0  0  0  0  0  0
    2.4720   62.9880   70.8920 C   0  0  0  0  0  0  0  0  0  0  0  0
    1.7140   62.3500   72.0670 C   0  0  2  0  0  0  0  0  0  0  0  0
    1.3870   63.4230   73.1040 C   0  0  0  0  0  0  0  0  0  0  0  0
    3.6610   62.6030   68.7190 C   0  0  0  0  0  0  0  0  0  0  0  0
    4.8720   61.0390   70.9260 O   0  0  0  0  0  0  0  0  0  0  0  0
    1.0970   61.2960   77.2190 O   0  0  0  0  0  0  0  0  0  0  0  0
    4.2450   61.2860   79.2360 C   0  0  1  0  0  0  0  0  0  0  0  0
    2.9800   60.7660   78.5580 C   0  0  0  0  0  0  0  0  0  0  0  0
    2.2720   61.8680   77.7870 C   0  0  2  0  0  0  0  0  0  0  0  0
    1.9450   62.9310   78.6720 O   0  0  0  0  0  0  0  0  0  0  0  0
    3.1110   63.5530   79.2120 C   0  0  2  0  0  0  0  0  0  0  0  0
    3.9500   62.5680   80.0540 C   0  0  2  0  0  0  0  0  0  0  0  0
    2.6400   64.7400   80.0490 C   0  0  0  0  0  0  0  0  0  0  0  0
    4.5540   58.9480   79.6640 C   0  0  0  0  0  0  0  0  0  0  0  0
    4.7590   60.2770   80.1270 O   0  0  0  0  0  0  0  0  0  0  0  0
    5.1540   63.2620   80.4300 O   0  0  0  0  0  0  0  0  0  0  0  0
    6.0900   63.4120   79.3700 C   0  0  0  0  0  0  0  0  0  0  0  0
    0.5250   58.6216   77.2855 H   0  0  0  0  0  0  0  0  0  0  0  0
    0.6210   57.5094   75.8781 H   0  0  0  0  0  0  0  0  0  0  0  0
    1.5595   59.0411   75.8781 H   0  0  0  0  0  0  0  0  0  0  0  0
   -1.7400   59.0669   73.7117 H   0  0  0  0  0  0  0  0  0  0  0  0
   -0.3665   57.9726   73.7910 H   0  0  0  0  0  0  0  0  0  0  0  0
   -2.9476   57.2540   74.5335 H   0  0  0  0  0  0  0  0  0  0  0  0
   -1.5318   56.4638   75.2266 H   0  0  0  0  0  0  0  0  0  0  0  0
   -2.0377   57.3968   77.2562 H   0  0  0  0  0  0  0  0  0  0  0  0
   -3.2876   57.9029   78.8197 H   0  0  0  0  0  0  0  0  0  0  0  0
   -4.1068   59.4776   78.5439 H   0  0  0  0  0  0  0  0  0  0  0  0
   -5.0618   57.9562   78.5439 H   0  0  0  0  0  0  0  0  0  0  0  0
   -4.3533   56.8564   75.1745 H   0  0  0  0  0  0  0  0  0  0  0  0
   -4.8187   56.2782   76.7595 H   0  0  0  0  0  0  0  0  0  0  0  0
   -6.6333   57.4805   75.1243 H   0  0  0  0  0  0  0  0  0  0  0  0
   -6.7327   57.7795   76.8507 H   0  0  0  0  0  0  0  0  0  0  0  0
   -4.9920   60.4860   74.0077 H   0  0  0  0  0  0  0  0  0  0  0  0
   -5.5927   58.8377   73.6167 H   0  0  0  0  0  0  0  0  0  0  0  0
   -7.8904   59.5402   74.1697 H   0  0  0  0  0  0  0  0  0  0  0  0
   -7.1834   62.4811   74.2952 H   0  0  0  0  0  0  0  0  0  0  0  0
   -5.5931   61.9569   75.8280 H   0  0  0  0  0  0  0  0  0  0  0  0
   -9.1408   61.5687   76.1567 H   0  0  0  0  0  0  0  0  0  0  0  0
   -9.3953   62.4706   74.6242 H   0  0  0  0  0  0  0  0  0  0  0  0
   -9.4214   60.6745   74.6242 H   0  0  0  0  0  0  0  0  0  0  0  0
   -7.8054   63.0891   76.8350 H   0  0  0  0  0  0  0  0  0  0  0  0
   -7.2903   62.0415   79.3966 H   0  0  0  0  0  0  0  0  0  0  0  0
   -8.6813   61.5481   78.3728 H   0  0  0  0  0  0  0  0  0  0  0  0
   -7.1746   60.5701   78.3728 H   0  0  0  0  0  0  0  0  0  0  0  0
   -5.8962   63.1323   78.9151 H   0  0  0  0  0  0  0  0  0  0  0  0
   -3.7371   65.2531   75.7522 H   0  0  0  0  0  0  0  0  0  0  0  0
   -3.8195   64.7199   78.7797 H   0  0  0  0  0  0  0  0  0  0  0  0
   -4.2931   62.8151   76.4337 H   0  0  0  0  0  0  0  0  0  0  0  0
   -3.4744   66.9565   78.2241 H   0  0  0  0  0  0  0  0  0  0  0  0
   -2.4998   66.9408   76.7153 H   0  0  0  0  0  0  0  0  0  0  0  0
   -4.1436   67.6651   76.7153 H   0  0  0  0  0  0  0  0  0  0  0  0
   -1.4644   62.6450   76.3932 H   0  0  0  0  0  0  0  0  0  0  0  0
   -2.8901   63.4904   75.7009 H   0  0  0  0  0  0  0  0  0  0  0  0
   -1.2829   64.2926   75.7009 H   0  0  0  0  0  0  0  0  0  0  0  0
   -3.6669   61.4148   80.2686 H   0  0  0  0  0  0  0  0  0  0  0  0
   -3.6362   63.1870   79.9770 H   0  0  0  0  0  0  0  0  0  0  0  0
   -5.2003   62.3038   79.9770 H   0  0  0  0  0  0  0  0  0  0  0  0
   -6.2386   67.0309   77.7766 H   0  0  0  0  0  0  0  0  0  0  0  0
   -5.3916   65.2282   74.4974 H   0  0  0  0  0  0  0  0  0  0  0  0
   -6.3085   63.9098   75.3575 H   0  0  0  0  0  0  0  0  0  0  0  0
   -7.3905   61.6156   72.4559 H   0  0  0  0  0  0  0  0  0  0  0  0
    0.9657   62.4959   75.6886 H   0  0  0  0  0  0  0  0  0  0  0  0
    3.1050   61.4930   75.1237 H   0  0  0  0  0  0  0  0  0  0  0  0
    2.6472   59.9102   75.7343 H   0  0  0  0  0  0  0  0  0  0  0  0
    2.0307   59.3409   73.5886 H   0  0  0  0  0  0  0  0  0  0  0  0
   -1.0273   61.2801   75.3048 H   0  0  0  0  0  0  0  0  0  0  0  0
    3.4541   61.5702   73.0405 H   0  0  0  0  0  0  0  0  0  0  0  0
    3.8119   58.6270   70.0569 H   0  0  0  0  0  0  0  0  0  0  0  0
    2.7990   59.5118   68.8661 H   0  0  0  0  0  0  0  0  0  0  0  0
    4.5821   59.7295   68.8661 H   0  0  0  0  0  0  0  0  0  0  0  0
    1.9355   61.5369   69.3664 H   0  0  0  0  0  0  0  0  0  0  0  0
    3.3915   63.4574   71.2717 H   0  0  0  0  0  0  0  0  0  0  0  0
    1.8170   63.7368   70.4228 H   0  0  0  0  0  0  0  0  0  0  0  0
    0.7502   61.9351   71.7369 H   0  0  0  0  0  0  0  0  0  0  0  0
    1.5137   63.0071   74.1144 H   0  0  0  0  0  0  0  0  0  0  0  0
    2.0650   64.2791   72.9721 H   0  0  0  0  0  0  0  0  0  0  0  0
    0.3468   63.7554   72.9721 H   0  0  0  0  0  0  0  0  0  0  0  0
    4.4420   63.2374   69.1635 H   0  0  0  0  0  0  0  0  0  0  0  0
    4.1296   61.8265   68.0965 H   0  0  0  0  0  0  0  0  0  0  0  0
    2.9970   63.2208   68.0965 H   0  0  0  0  0  0  0  0  0  0  0  0
    4.8951   61.0444   71.9157 H   0  0  0  0  0  0  0  0  0  0  0  0
    4.9820   61.5233   78.4546 H   0  0  0  0  0  0  0  0  0  0  0  0
    3.2528   59.9599   77.8611 H   0  0  0  0  0  0  0  0  0  0  0  0
    2.2975   60.3941   79.3364 H   0  0  0  0  0  0  0  0  0  0  0  0
    2.9118   62.2793   76.9924 H   0  0  0  0  0  0  0  0  0  0  0  0
    3.7717   63.8896   78.3995 H   0  0  0  0  0  0  0  0  0  0  0  0
    3.4127   62.2428   80.9571 H   0  0  0  0  0  0  0  0  0  0  0  0
    2.7366   64.4966   81.1174 H   0  0  0  0  0  0  0  0  0  0  0  0
    3.2569   65.6205   79.8163 H   0  0  0  0  0  0  0  0  0  0  0  0
    1.5872   64.9580   79.8163 H   0  0  0  0  0  0  0  0  0  0  0  0
    4.4497   58.2717   80.5252 H   0  0  0  0  0  0  0  0  0  0  0  0
    3.6392   58.9091   79.0543 H   0  0  0  0  0  0  0  0  0  0  0  0
    5.4145   58.6353   79.0543 H   0  0  0  0  0  0  0  0  0  0  0  0
    7.0947   63.5730   79.7880 H   0  0  0  0  0  0  0  0  0  0  0  0
    6.0918   62.5027   78.7510 H   0  0  0  0  0  0  0  0  0  0  0  0
    5.8076   64.2763   78.7510 H   0  0  0  0  0  0  0  0  0  0  0  0
  1  2  1  1
  3  1  1  0
  4  3  1  0
  5  4  1  0
  6  1  1  0
  6  5  1  0
  7  5  1  0
  7  8  1  1
  9  7  1  0
 10  9  1  0
 11 10  1  0
 11 12  1  1
 12  7  1  0
 13 11  1  0
 14 13  1  0
 15 14  1  0
 16 15  1  0
 17 11  1  0
 17 16  1  0
 18 15  1  0
 19 16  1  0
 20 19  1  0
 21 19  1  0
 22 21  1  0
 23 22  1  0
 24 23  1  0
 25 24  1  0
 26 21  1  0
 26 25  1  0
 27 24  1  0
 28 25  1  0
 29 28  1  0
 30 26  1  0
 31 30  1  0
 23 32  1  1
 33 23  1  0
 34 33  1  0
 35 34  2  0
 36 34  1  0
 37 14  1  0
 39 38  1  0
 40 39  1  0
 41 40  1  0
 42  1  1  0
 42 41  1  0
 42 38  1  0
 43 40  1  0
 44 43  1  0
 45 44  1  0
 46 45  1  0
 47 45  1  0
 48 47  1  0
 49 48  1  0
 49 43  1  0
 50 49  1  0
 51 47  1  0
 45 52  1  1
 53 38  1  0
 55 54  1  0
 56 55  1  0
 56 53  1  0
 57 56  1  0
 58 57  1  0
 59 58  1  0
 59 54  1  0
 60 58  1  0
 62 61  1  0
 62 54  1  0
 63 59  1  0
 64 63  1  0
  2 65  1  0
  2 66  1  0
  2 67  1  0
  3 68  1  0
  3 69  1  0
  4 70  1  0
  4 71  1  0
  5 72  1  1
  8 73  1  0
  8 74  1  0
  8 75  1  0
  9 76  1  0
  9 77  1  0
 10 78  1  0
 10 79  1  0
 13 80  1  0
 13 81  1  0
 14 82  1  6
 15 83  1  6
 16 84  1  6
 18 85  1  0
 18 86  1  0
 18 87  1  0
 19 88  1  6
 20 89  1  0
 20 90  1  0
 20 91  1  0
 21 92  1  1
 24 93  1  6
 25 94  1  1
 26 95  1  6
 27 96  1  0
 27 97  1  0
 27 98  1  0
 29 99  1  0
 29100  1  0
 29101  1  0
 31102  1  0
 31103  1  0
 31104  1  0
 32105  1  0
 33106  1  0
 33107  1  0
 37108  1  0
 38109  1  1
 39110  1  0
 39111  1  0
 40112  1  6
 42113  1  6
 43114  1  1
 46115  1  0
 46116  1  0
 46117  1  0
 47118  1  6
 48119  1  0
 48120  1  0
 49121  1  6
 50122  1  0
 50123  1  0
 50124  1  0
 51125  1  0
 51126  1  0
 51127  1  0
 52128  1  0
 54129  1  6
 55130  1  0
 55131  1  0
 56132  1  6
 58133  1  6
 59134  1  1
 60135  1  0
 60136  1  0
 60137  1  0
 61138  1  0
 61139  1  0
 61140  1  0
 64141  1  0
 64142  1  0
 64143  1  0
M  CHG  1  36  -1
M  END
>  <score>  (1) 
-8.101

$$$$
=
     RDKit          3D

143149  0  0  0  0  0  0  0  0999 V2000
    2.8230   58.2890   75.5840 C   0  0  1  0  0  0  0  0  0  0  0  0
    4.3640   58.2150   75.4820 C   0  0  0  0  0  0  0  0  0  0  0  0
    2.3170   57.2980   76.6260 C   0  0  0  0  0  0  0  0  0  0  0  0
    2.5400   58.0060   77.9470 C   0  0  0  0  0  0  0  0  0  0  0  0
    2.6030   59.4920   77.5890 C   0  0  1  0  0  0  0  0  0  0  0  0
    2.4780   59.5690   76.1490 O   0  0  0  0  0  0  0  0  0  0  0  0
    1.5710   60.3980   78.3030 C   0  0  2  0  0  0  0  0  0  0  0  0
    1.8140   61.8760   77.9470 C   0  0  0  0  0  0  0  0  0  0  0  0
    1.4960   60.1740   79.8090 C   0  0  0  0  0  0  0  0  0  0  0  0
    0.0850   60.5900   80.1430 C   0  0  0  0  0  0  0  0  0  0  0  0
   -0.7050   60.2310   78.8800 C   0  0  1  0  0  0  0  0  0  0  0  0
    0.2510   60.0640   77.8200 O   0  0  0  0  0  0  0  0  0  0  0  0
   -1.5010   58.9290   79.0280 C   0  0  0  0  0  0  0  0  0  0  0  0
   -2.9010   59.2410   79.5270 C   0  0  1  0  0  0  0  0  0  0  0  0
   -3.6510   60.2020   78.5700 C   0  0  2  0  0  0  0  0  0  0  0  0
   -2.6370   61.0100   77.7090 C   0  0  2  0  0  0  0  0  0  0  0  0
   -1.5590   61.3460   78.6000 O   0  0  0  0  0  0  0  0  0  0  0  0
   -4.5910   61.0700   79.4180 C   0  0  0  0  0  0  0  0  0  0  0  0
   -3.1670   62.2960   77.0100 C   0  0  1  0  0  0  0  0  0  0  0  0
   -2.0030   63.2740   76.7150 C   0  0  0  0  0  0  0  0  0  0  0  0
   -3.9440   62.0460   75.6740 C   0  0  2  0  0  0  0  0  0  0  0  0
   -4.8920   63.1000   75.4480 O   0  0  0  0  0  0  0  0  0  0  0  0
   -6.2820   62.8550   75.7000 C   0  0  2  0  0  0  0  0  0  0  0  0
   -6.7890   61.6270   74.8870 C   0  0  2  0  0  0  0  0  0  0  0  0
   -5.6200   60.7950   74.3180 C   0  0  1  0  0  0  0  0  0  0  0  0
   -4.5230   60.6400   75.4000 C   0  0  1  0  0  0  0  0  0  0  0  0
   -7.7850   61.9940   73.7750 C   0  0  0  0  0  0  0  0  0  0  0  0
   -6.1310   59.5050   73.9240 O   0  0  0  0  0  0  0  0  0  0  0  0
   -6.5910   58.7410   75.0340 C   0  0  0  0  0  0  0  0  0  0  0  0
   -3.4280   59.8070   74.9680 O   0  0  0  0  0  0  0  0  0  0  0  0
   -2.5780   60.4030   73.9980 C   0  0  0  0  0  0  0  0  0  0  0  0
   -6.9270   64.0510   75.2490 O   0  0  0  0  0  0  0  0  0  0  0  0
   -6.5020   62.7080   77.2080 C   0  0  0  0  0  0  0  0  0  0  0  0
   -6.8100   64.0290   77.8900 C   0  0  0  0  0  0  0  0  0  0  0  0
   -5.7950   64.7380   78.1540 O   0  0  0  0  0  0  0  0  0  0  0  0
   -8.0310   64.2520   78.1050 O   0  0  0  0  0  1  0  0  0  0  0  0
   -3.6280   58.0180   79.6680 O   0  0  0  0  0  0  0  0  0  0  0  0
    0.7810   58.5270   73.8640 C   0  0  1  0  0  0  0  0  0  0  0  0
    0.9300   60.0120   73.6150 C   0  0  0  0  0  0  0  0  0  0  0  0
    2.3560   60.1540   73.0750 C   0  0  1  0  0  0  0  0  0  0  0  0
    2.9650   58.8450   73.1770 O   0  0  0  0  0  0  0  0  0  0  0  0
    2.2150   58.0820   74.1600 C   0  0  1  0  0  0  0  0  0  0  0  0
    2.4390   60.6670   71.6210 C   0  0  1  0  0  0  0  0  0  0  0  0
    2.6490   62.0830   71.6570 O   0  0  0  0  0  0  0  0  0  0  0  0
    2.6250   62.7360   70.3920 C   0  0  1  0  0  0  0  0  0  0  0  0
    2.8590   64.2190   70.6880 C   0  0  0  0  0  0  0  0  0  0  0  0
    3.7270   62.1620   69.4710 C   0  0  1  0  0  0  0  0  0  0  0  0
    3.6340   60.6310   69.3990 C   0  0  0  0  0  0  0  0  0  0  0  0
    3.5750   60.0070   70.8030 C   0  0  2  0  0  0  0  0  0  0  0  0
    3.4580   58.4890   70.6790 C   0  0  0  0  0  0  0  0  0  0  0  0
    3.7100   62.7470   68.0560 C   0  0  0  0  0  0  0  0  0  0  0  0
    1.3270   62.6460   69.8160 O   0  0  0  0  0  0  0  0  0  0  0  0
   -0.1960   58.2670   74.8550 O   0  0  0  0  0  0  0  0  0  0  0  0
   -2.5390   55.4970   75.7580 C   0  0  1  0  0  0  0  0  0  0  0  0
   -1.7870   56.8220   75.8540 C   0  0  0  0  0  0  0  0  0  0  0  0
   -0.8700   57.0270   74.6600 C   0  0  2  0  0  0  0  0  0  0  0  0
    0.0570   55.9500   74.5850 O   0  0  0  0  0  0  0  0  0  0  0  0
   -0.5950   54.7040   74.3370 C   0  0  2  0  0  0  0  0  0  0  0  0
   -1.5650   54.3260   75.4770 C   0  0  2  0  0  0  0  0  0  0  0  0
    0.4990   53.6530   74.1650 C   0  0  0  0  0  0  0  0  0  0  0  0
   -2.3490   55.1060   78.1150 C   0  0  0  0  0  0  0  0  0  0  0  0
   -3.2220   55.2430   77.0010 O   0  0  0  0  0  0  0  0  0  0  0  0
   -2.2550   53.1340   75.0590 O   0  0  0  0  0  0  0  0  0  0  0  0
   -2.1440   52.0500   75.9720 C   0  0  0  0  0  0  0  0  0  0  0  0
    4.7978   58.1942   76.4926 H   0  0  0  0  0  0  0  0  0  0  0  0
    4.6522   57.3020   74.9404 H   0  0  0  0  0  0  0  0  0  0  0  0
    4.7384   59.0962   74.9404 H   0  0  0  0  0  0  0  0  0  0  0  0
    1.2492   57.0823   76.4738 H   0  0  0  0  0  0  0  0  0  0  0  0
    2.8344   56.3287   76.5735 H   0  0  0  0  0  0  0  0  0  0  0  0
    1.7068   57.8089   78.6376 H   0  0  0  0  0  0  0  0  0  0  0  0
    3.4541   57.6620   78.4530 H   0  0  0  0  0  0  0  0  0  0  0  0
    3.5612   59.8935   77.9503 H   0  0  0  0  0  0  0  0  0  0  0  0
    1.9108   62.4646   78.8712 H   0  0  0  0  0  0  0  0  0  0  0  0
    2.7387   61.9640   77.3577 H   0  0  0  0  0  0  0  0  0  0  0  0
    0.9662   62.2554   77.3577 H   0  0  0  0  0  0  0  0  0  0  0  0
    1.6668   59.1169   80.0606 H   0  0  0  0  0  0  0  0  0  0  0  0
    2.2581   60.7352   80.3696 H   0  0  0  0  0  0  0  0  0  0  0  0
   -0.2927   60.0340   81.0138 H   0  0  0  0  0  0  0  0  0  0  0  0
    0.0048   61.6543   80.4092 H   0  0  0  0  0  0  0  0  0  0  0  0
   -1.5641   58.4257   78.0520 H   0  0  0  0  0  0  0  0  0  0  0  0
   -0.9943   58.2714   79.7497 H   0  0  0  0  0  0  0  0  0  0  0  0
   -2.8200   59.7472   80.5002 H   0  0  0  0  0  0  0  0  0  0  0  0
   -4.2679   59.6541   77.8426 H   0  0  0  0  0  0  0  0  0  0  0  0
   -2.3518   60.3742   76.8579 H   0  0  0  0  0  0  0  0  0  0  0  0
   -4.3946   60.8886   80.4850 H   0  0  0  0  0  0  0  0  0  0  0  0
   -4.4167   62.1315   79.1883 H   0  0  0  0  0  0  0  0  0  0  0  0
   -5.6353   60.8118   79.1883 H   0  0  0  0  0  0  0  0  0  0  0  0
   -3.8845   62.7227   77.7263 H   0  0  0  0  0  0  0  0  0  0  0  0
   -1.5762   63.6326   77.6633 H   0  0  0  0  0  0  0  0  0  0  0  0
   -1.2253   62.7544   76.1361 H   0  0  0  0  0  0  0  0  0  0  0  0
   -2.3808   64.1297   76.1361 H   0  0  0  0  0  0  0  0  0  0  0  0
   -3.1516   62.0697   74.9114 H   0  0  0  0  0  0  0  0  0  0  0  0
   -7.3406   61.0080   75.6099 H   0  0  0  0  0  0  0  0  0  0  0  0
   -5.1766   61.2958   73.4447 H   0  0  0  0  0  0  0  0  0  0  0  0
   -4.9817   60.1740   76.2846 H   0  0  0  0  0  0  0  0  0  0  0  0
   -8.7265   62.3409   74.2259 H   0  0  0  0  0  0  0  0  0  0  0  0
   -7.3601   62.7946   73.1517 H   0  0  0  0  0  0  0  0  0  0  0  0
   -7.9811   61.1091   73.1517 H   0  0  0  0  0  0  0  0  0  0  0  0
   -6.2924   59.2369   75.9694 H   0  0  0  0  0  0  0  0  0  0  0  0
   -7.6874   58.6612   74.9951 H   0  0  0  0  0  0  0  0  0  0  0  0
   -6.1485   57.7347   74.9951 H   0  0  0  0  0  0  0  0  0  0  0  0
   -1.7789   60.9633   74.5054 H   0  0  0  0  0  0  0  0  0  0  0  0
   -2.1329   59.6182   73.3688 H   0  0  0  0  0  0  0  0  0  0  0  0
   -3.1641   61.0889   73.3688 H   0  0  0  0  0  0  0  0  0  0  0  0
   -7.2152   64.5854   76.0309 H   0  0  0  0  0  0  0  0  0  0  0  0
   -7.3452   62.0216   77.3747 H   0  0  0  0  0  0  0  0  0  0  0  0
   -5.5683   62.3212   77.6424 H   0  0  0  0  0  0  0  0  0  0  0  0
   -3.7488   57.8148   80.6294 H   0  0  0  0  0  0  0  0  0  0  0  0
    0.3822   57.9416   73.0224 H   0  0  0  0  0  0  0  0  0  0  0  0
    0.1947   60.3603   72.8747 H   0  0  0  0  0  0  0  0  0  0  0  0
    0.7574   60.6132   74.5199 H   0  0  0  0  0  0  0  0  0  0  0  0
    2.8798   60.9167   73.6699 H   0  0  0  0  0  0  0  0  0  0  0  0
    2.2516   56.9837   74.1119 H   0  0  0  0  0  0  0  0  0  0  0  0
    1.4952   60.4043   71.1208 H   0  0  0  0  0  0  0  0  0  0  0  0
    2.8838   64.3762   71.7764 H   0  0  0  0  0  0  0  0  0  0  0  0
    3.8179   64.5334   70.2502 H   0  0  0  0  0  0  0  0  0  0  0  0
    2.0435   64.8134   70.2502 H   0  0  0  0  0  0  0  0  0  0  0  0
    4.6823   62.4591   69.9284 H   0  0  0  0  0  0  0  0  0  0  0  0
    2.7251   60.3531   68.8451 H   0  0  0  0  0  0  0  0  0  0  0  0
    4.5322   60.2527   68.8890 H   0  0  0  0  0  0  0  0  0  0  0  0
    4.5022   60.2009   71.3622 H   0  0  0  0  0  0  0  0  0  0  0  0
    3.4234   58.0407   71.6829 H   0  0  0  0  0  0  0  0  0  0  0  0
    2.5377   58.2356   70.1324 H   0  0  0  0  0  0  0  0  0  0  0  0
    4.3286   58.0976   70.1324 H   0  0  0  0  0  0  0  0  0  0  0  0
    3.6781   63.8450   68.1136 H   0  0  0  0  0  0  0  0  0  0  0  0
    4.6176   62.4342   67.5190 H   0  0  0  0  0  0  0  0  0  0  0  0
    2.8221   62.3820   67.5190 H   0  0  0  0  0  0  0  0  0  0  0  0
    0.6490   62.5990   70.5359 H   0  0  0  0  0  0  0  0  0  0  0  0
   -3.2595   55.5686   74.9299 H   0  0  0  0  0  0  0  0  0  0  0  0
   -2.5157   57.6452   75.8911 H   0  0  0  0  0  0  0  0  0  0  0  0
   -1.1706   56.8049   76.7649 H   0  0  0  0  0  0  0  0  0  0  0  0
   -1.4350   57.0503   73.7165 H   0  0  0  0  0  0  0  0  0  0  0  0
   -1.2133   54.7728   73.4298 H   0  0  0  0  0  0  0  0  0  0  0  0
   -1.0312   54.1339   76.4194 H   0  0  0  0  0  0  0  0  0  0  0  0
    0.8460   53.3197   75.1542 H   0  0  0  0  0  0  0  0  0  0  0  0
    0.0974   52.7934   73.6084 H   0  0  0  0  0  0  0  0  0  0  0  0
    1.3418   54.0887   73.6084 H   0  0  0  0  0  0  0  0  0  0  0  0
   -2.9266   55.1966   79.0468 H   0  0  0  0  0  0  0  0  0  0  0  0
   -1.8618   54.1204   78.0800 H   0  0  0  0  0  0  0  0  0  0  0  0
   -1.5833   55.8950   78.0800 H   0  0  0  0  0  0  0  0  0  0  0  0
   -2.1832   52.4330   77.0024 H   0  0  0  0  0  0  0  0  0  0  0  0
   -2.9749   51.3476   75.8100 H   0  0  0  0  0  0  0  0  0  0  0  0
   -1.1880   51.5306   75.8100 H   0  0  0  0  0  0  0  0  0  0  0  0
  1  2  1  6
  3  1  1  0
  4  3  1  0
  5  4  1  0
  6  1  1  0
  6  5  1  0
  7  5  1  0
  7  8  1  1
  9  7  1  0
 10  9  1  0
 11 10  1  0
 11 12  1  6
 12  7  1  0
 13 11  1  0
 14 13  1  0
 15 14  1  0
 16 15  1  0
 17 11  1  0
 17 16  1  0
 18 15  1  0
 19 16  1  0
 20 19  1  0
 21 19  1  0
 22 21  1  0
 23 22  1  0
 24 23  1  0
 25 24  1  0
 26 21  1  0
 26 25  1  0
 27 24  1  0
 28 25  1  0
 29 28  1  0
 30 26  1  0
 31 30  1  0
 23 32  1  6
 33 23  1  0
 34 33  1  0
 35 34  2  0
 36 34  1  0
 37 14  1  0
 39 38  1  0
 40 39  1  0
 41 40  1  0
 42  1  1  0
 42 41  1  0
 42 38  1  0
 43 40  1  0
 44 43  1  0
 45 44  1  0
 46 45  1  0
 47 45  1  0
 48 47  1  0
 49 48  1  0
 49 43  1  0
 50 49  1  0
 51 47  1  0
 45 52  1  6
 53 38  1  0
 55 54  1  0
 56 55  1  0
 56 53  1  0
 57 56  1  0
 58 57  1  0
 59 58  1  0
 59 54  1  0
 60 58  1  0
 62 61  1  0
 62 54  1  0
 63 59  1  0
 64 63  1  0
  2 65  1  0
  2 66  1  0
  2 67  1  0
  3 68  1  0
  3 69  1  0
  4 70  1  0
  4 71  1  0
  5 72  1  6
  8 73  1  0
  8 74  1  0
  8 75  1  0
  9 76  1  0
  9 77  1  0
 10 78  1  0
 10 79  1  0
 13 80  1  0
 13 81  1  0
 14 82  1  1
 15 83  1  6
 16 84  1  6
 18 85  1  0
 18 86  1  0
 18 87  1  0
 19 88  1  1
 20 89  1  0
 20 90  1  0
 20 91  1  0
 21 92  1  6
 24 93  1  1
 25 94  1  6
 26 95  1  1
 27 96  1  0
 27 97  1  0
 27 98  1  0
 29 99  1  0
 29100  1  0
 29101  1  0
 31102  1  0
 31103  1  0
 31104  1  0
 32105  1  0
 33106  1  0
 33107  1  0
 37108  1  0
 38109  1  6
 39110  1  0
 39111  1  0
 40112  1  1
 42113  1  6
 43114  1  6
 46115  1  0
 46116  1  0
 46117  1  0
 47118  1  1
 48119  1  0
 48120  1  0
 49121  1  1
 50122  1  0
 50123  1  0
 50124  1  0
 51125  1  0
 51126  1  0
 51127  1  0
 52128  1  0
 54129  1  6
 55130  1  0
 55131  1  0
 56132  1  6
 58133  1  6
 59134  1  1
 60135  1  0
 60136  1  0
 60137  1  0
 61138  1  0
 61139  1  0
 61140  1  0
 64141  1  0
 64142  1  0
 64143  1  0
M  CHG  1  36  -1
M  END
>  <score>  (2) 
-8.011

$$$$
=
     RDKit          3D

143149  0  0  0  0  0  0  0  0999 V2000
   -0.1180   64.4860   74.0940 C   0  0  1  0  0  0  0  0  0  0  0  0
   -0.7270   65.9020   73.9720 C   0  0  0  0  0  0  0  0  0  0  0  0
    1.3230   64.5760   74.5840 C   0  0  0  0  0  0  0  0  0  0  0  0
    1.1910   64.7580   76.0820 C   0  0  0  0  0  0  0  0  0  0  0  0
   -0.1940   64.2080   76.4240 C   0  0  1  0  0  0  0  0  0  0  0  0
   -0.7930   63.8050   75.1690 O   0  0  0  0  0  0  0  0  0  0  0  0
   -0.2220   63.0620   77.4650 C   0  0  2  0  0  0  0  0  0  0  0  0
   -1.4560   63.1920   78.3760 C   0  0  0  0  0  0  0  0  0  0  0  0
    1.0690   62.9280   78.2640 C   0  0  0  0  0  0  0  0  0  0  0  0
    1.0770   61.4700   78.6500 C   0  0  0  0  0  0  0  0  0  0  0  0
    0.3640   60.7830   77.4810 C   0  0  1  0  0  0  0  0  0  0  0  0
   -0.3500   61.8050   76.7660 O   0  0  0  0  0  0  0  0  0  0  0  0
    1.3350   60.0990   76.5120 C   0  0  0  0  0  0  0  0  0  0  0  0
    1.5360   58.6510   76.9290 C   0  0  1  0  0  0  0  0  0  0  0  0
    0.1980   57.8720   76.9580 C   0  0  2  0  0  0  0  0  0  0  0  0
   -0.9990   58.8540   77.1150 C   0  0  2  0  0  0  0  0  0  0  0  0
   -0.5590   59.8500   78.0550 O   0  0  0  0  0  0  0  0  0  0  0  0
    0.2940   56.8140   78.0670 C   0  0  0  0  0  0  0  0  0  0  0  0
   -2.3570   58.2510   77.5790 C   0  0  1  0  0  0  0  0  0  0  0  0
   -2.9670   59.0990   78.7220 C   0  0  0  0  0  0  0  0  0  0  0  0
   -3.4330   58.1070   76.4510 C   0  0  2  0  0  0  0  0  0  0  0  0
   -3.1750   59.0490   75.3990 O   0  0  0  0  0  0  0  0  0  0  0  0
   -3.9830   60.2310   75.3060 C   0  0  2  0  0  0  0  0  0  0  0  0
   -5.4940   59.8670   75.2090 C   0  0  2  0  0  0  0  0  0  0  0  0
   -5.7550   58.3940   75.5920 C   0  0  1  0  0  0  0  0  0  0  0  0
   -4.9250   58.0340   76.8480 C   0  0  1  0  0  0  0  0  0  0  0  0
   -6.1190   60.1920   73.8430 C   0  0  0  0  0  0  0  0  0  0  0  0
   -7.1650   58.2370   75.8520 O   0  0  0  0  0  0  0  0  0  0  0  0
   -7.6280   59.1060   76.8800 C   0  0  0  0  0  0  0  0  0  0  0  0
   -5.1740   56.6920   77.3140 O   0  0  0  0  0  0  0  0  0  0  0  0
   -5.6030   56.6050   78.6660 C   0  0  0  0  0  0  0  0  0  0  0  0
   -3.5420   60.8510   74.0940 O   0  0  0  0  0  0  0  0  0  0  0  0
   -3.6620   61.1540   76.4840 C   0  0  0  0  0  0  0  0  0  0  0  0
   -4.4940   62.4240   76.4810 C   0  0  0  0  0  0  0  0  0  0  0  0
   -4.2070   63.2440   75.5600 O   0  0  0  0  0  0  0  0  0  0  0  0
   -5.3620   62.5000   77.3920 O   0  0  0  0  0  1  0  0  0  0  0  0
    2.4500   58.0290   76.0230 O   0  0  0  0  0  0  0  0  0  0  0  0
    0.5420   64.1900   71.5130 C   0  0  1  0  0  0  0  0  0  0  0  0
    1.8780   63.5190   71.7470 C   0  0  0  0  0  0  0  0  0  0  0  0
    1.5260   62.2680   72.5560 C   0  0  1  0  0  0  0  0  0  0  0  0
    0.1120   62.3560   72.8540 O   0  0  0  0  0  0  0  0  0  0  0  0
   -0.2810   63.7500   72.7260 C   0  0  1  0  0  0  0  0  0  0  0  0
    1.8330   60.9360   71.8360 C   0  0  1  0  0  0  0  0  0  0  0  0
    3.1970   60.9670   71.4020 O   0  0  0  0  0  0  0  0  0  0  0  0
    3.6100   59.8590   70.6080 C   0  0  1  0  0  0  0  0  0  0  0  0
    5.0780   60.1220   70.2640 C   0  0  0  0  0  0  0  0  0  0  0  0
    3.4410   58.5400   71.3960 C   0  0  1  0  0  0  0  0  0  0  0  0
    2.0180   58.4230   71.9630 C   0  0  0  0  0  0  0  0  0  0  0  0
    1.6150   59.6920   72.7310 C   0  0  2  0  0  0  0  0  0  0  0  0
    0.1870   59.5380   73.2520 C   0  0  0  0  0  0  0  0  0  0  0  0
    3.7760   57.2890   70.5800 C   0  0  0  0  0  0  0  0  0  0  0  0
    2.9080   59.8520   69.3700 O   0  0  0  0  0  0  0  0  0  0  0  0
    0.6940   65.5810   71.3040 O   0  0  0  0  0  0  0  0  0  0  0  0
    1.3930   67.6780   68.2880 C   0  0  1  0  0  0  0  0  0  0  0  0
    1.4640   67.1770   69.7280 C   0  0  0  0  0  0  0  0  0  0  0  0
    0.5840   65.9540   69.9330 C   0  0  2  0  0  0  0  0  0  0  0  0
   -0.7600   66.2770   69.5990 O   0  0  0  0  0  0  0  0  0  0  0  0
   -0.9020   66.6020   68.2160 C   0  0  2  0  0  0  0  0  0  0  0  0
   -0.0780   67.8500   67.8330 C   0  0  2  0  0  0  0  0  0  0  0  0
   -2.3910   66.8160   67.9570 C   0  0  0  0  0  0  0  0  0  0  0  0
    2.7720   69.1330   66.9750 C   0  0  0  0  0  0  0  0  0  0  0  0
    2.0590   68.9520   68.1920 O   0  0  0  0  0  0  0  0  0  0  0  0
   -0.1900   68.0000   66.4050 O   0  0  0  0  0  0  0  0  0  0  0  0
   -0.9870   69.1050   66.0010 C   0  0  0  0  0  0  0  0  0  0  0  0
   -0.9037   66.3130   74.9769 H   0  0  0  0  0  0  0  0  0  0  0  0
   -0.0302   66.5551   73.4261 H   0  0  0  0  0  0  0  0  0  0  0  0
   -1.6803   65.8454   73.4261 H   0  0  0  0  0  0  0  0  0  0  0  0
    1.8739   63.6533   74.3494 H   0  0  0  0  0  0  0  0  0  0  0  0
    1.8820   65.3941   74.1061 H   0  0  0  0  0  0  0  0  0  0  0  0
    1.9731   64.1936   76.6109 H   0  0  0  0  0  0  0  0  0  0  0  0
    1.3051   65.8098   76.3832 H   0  0  0  0  0  0  0  0  0  0  0  0
   -0.7652   65.0016   76.9279 H   0  0  0  0  0  0  0  0  0  0  0  0
   -1.1395   63.1587   79.4290 H   0  0  0  0  0  0  0  0  0  0  0  0
   -1.9610   64.1483   78.1750 H   0  0  0  0  0  0  0  0  0  0  0  0
   -2.1492   62.3619   78.1750 H   0  0  0  0  0  0  0  0  0  0  0  0
    1.9442   63.1787   77.6467 H   0  0  0  0  0  0  0  0  0  0  0  0
    1.1170   63.6064   79.1286 H   0  0  0  0  0  0  0  0  0  0  0  0
    2.1066   61.0974   78.7554 H   0  0  0  0  0  0  0  0  0  0  0  0
    0.5892   61.2818   79.6178 H   0  0  0  0  0  0  0  0  0  0  0  0
    0.9204   60.1325   75.4937 H   0  0  0  0  0  0  0  0  0  0  0  0
    2.3020   60.6229   76.5332 H   0  0  0  0  0  0  0  0  0  0  0  0
    1.9455   58.6346   77.9498 H   0  0  0  0  0  0  0  0  0  0  0  0
    0.0124   57.3470   76.0094 H   0  0  0  0  0  0  0  0  0  0  0  0
   -1.2379   59.2382   76.1124 H   0  0  0  0  0  0  0  0  0  0  0  0
    0.2492   57.3073   79.0492 H   0  0  0  0  0  0  0  0  0  0  0  0
   -0.5437   56.1073   77.9731 H   0  0  0  0  0  0  0  0  0  0  0  0
    1.2452   56.2696   77.9731 H   0  0  0  0  0  0  0  0  0  0  0  0
   -2.1053   57.2349   77.9170 H   0  0  0  0  0  0  0  0  0  0  0  0
   -2.6644   58.6783   79.6923 H   0  0  0  0  0  0  0  0  0  0  0  0
   -2.6059   60.1350   78.6428 H   0  0  0  0  0  0  0  0  0  0  0  0
   -4.0641   59.0861   78.6428 H   0  0  0  0  0  0  0  0  0  0  0  0
   -3.2887   57.0774   76.0918 H   0  0  0  0  0  0  0  0  0  0  0  0
   -5.9955   60.5135   75.9442 H   0  0  0  0  0  0  0  0  0  0  0  0
   -5.4558   57.7211   74.7749 H   0  0  0  0  0  0  0  0  0  0  0  0
   -5.2010   58.7344   77.6501 H   0  0  0  0  0  0  0  0  0  0  0  0
   -7.0859   60.6948   73.9925 H   0  0  0  0  0  0  0  0  0  0  0  0
   -5.4449   60.8538   73.2794 H   0  0  0  0  0  0  0  0  0  0  0  0
   -6.2736   59.2601   73.2794 H   0  0  0  0  0  0  0  0  0  0  0  0
   -7.3951   58.6688   77.8622 H   0  0  0  0  0  0  0  0  0  0  0  0
   -7.1307   60.0827   76.7861 H   0  0  0  0  0  0  0  0  0  0  0  0
   -8.7160   59.2380   76.7861 H   0  0  0  0  0  0  0  0  0  0  0  0
   -4.7467   56.7787   79.3343 H   0  0  0  0  0  0  0  0  0  0  0  0
   -6.3757   57.3647   78.8551 H   0  0  0  0  0  0  0  0  0  0  0  0
   -6.0187   55.6043   78.8551 H   0  0  0  0  0  0  0  0  0  0  0  0
   -2.9821   61.6382   74.3108 H   0  0  0  0  0  0  0  0  0  0  0  0
   -3.8556   60.6094   77.4199 H   0  0  0  0  0  0  0  0  0  0  0  0
   -2.6063   61.4498   76.3944 H   0  0  0  0  0  0  0  0  0  0  0  0
    3.1501   57.5526   76.5358 H   0  0  0  0  0  0  0  0  0  0  0  0
    0.0195   63.8987   70.5899 H   0  0  0  0  0  0  0  0  0  0  0  0
    2.3517   63.2470   70.7922 H   0  0  0  0  0  0  0  0  0  0  0  0
    2.5950   64.1718   72.2664 H   0  0  0  0  0  0  0  0  0  0  0  0
    2.1536   62.2499   73.4592 H   0  0  0  0  0  0  0  0  0  0  0  0
   -1.3379   63.9817   72.5276 H   0  0  0  0  0  0  0  0  0  0  0  0
    1.1342   60.8446   70.9914 H   0  0  0  0  0  0  0  0  0  0  0  0
    5.6591   60.2261   71.1921 H   0  0  0  0  0  0  0  0  0  0  0  0
    5.4734   59.2804   69.6763 H   0  0  0  0  0  0  0  0  0  0  0  0
    5.1566   61.0485   69.6763 H   0  0  0  0  0  0  0  0  0  0  0  0
    4.1705   58.5889   72.2178 H   0  0  0  0  0  0  0  0  0  0  0  0
    1.3134   58.2681   71.1326 H   0  0  0  0  0  0  0  0  0  0  0  0
    1.9917   57.5728   72.6605 H   0  0  0  0  0  0  0  0  0  0  0  0
    2.2528   59.8393   73.6150 H   0  0  0  0  0  0  0  0  0  0  0  0
    0.1959   59.5390   74.3520 H   0  0  0  0  0  0  0  0  0  0  0  0
   -0.4278   60.3750   72.8896 H   0  0  0  0  0  0  0  0  0  0  0  0
   -0.2352   58.5891   72.8896 H   0  0  0  0  0  0  0  0  0  0  0  0
    3.9993   56.4553   71.2620 H   0  0  0  0  0  0  0  0  0  0  0  0
    2.9172   57.0240   69.9458 H   0  0  0  0  0  0  0  0  0  0  0  0
    4.6523   57.4887   69.9458 H   0  0  0  0  0  0  0  0  0  0  0  0
    1.9333   59.8423   69.5434 H   0  0  0  0  0  0  0  0  0  0  0  0
    1.8829   66.9365   67.6398 H   0  0  0  0  0  0  0  0  0  0  0  0
    2.5053   66.9125   69.9642 H   0  0  0  0  0  0  0  0  0  0  0  0
    1.1050   67.9775   70.3916 H   0  0  0  0  0  0  0  0  0  0  0  0
    0.8979   65.1185   69.2900 H   0  0  0  0  0  0  0  0  0  0  0  0
   -0.5138   65.7842   67.5911 H   0  0  0  0  0  0  0  0  0  0  0  0
   -0.4533   68.7554   68.3325 H   0  0  0  0  0  0  0  0  0  0  0  0
   -2.9229   66.8924   68.9168 H   0  0  0  0  0  0  0  0  0  0  0  0
   -2.5338   67.7439   67.3838 H   0  0  0  0  0  0  0  0  0  0  0  0
   -2.7894   65.9659   67.3838 H   0  0  0  0  0  0  0  0  0  0  0  0
    3.8161   69.3981   67.1977 H   0  0  0  0  0  0  0  0  0  0  0  0
    2.7467   68.1999   66.3930 H   0  0  0  0  0  0  0  0  0  0  0  0
    2.3047   69.9410   66.3930 H   0  0  0  0  0  0  0  0  0  0  0  0
   -1.3651   69.6292   66.8911 H   0  0  0  0  0  0  0  0  0  0  0  0
   -0.3780   69.7959   65.3996 H   0  0  0  0  0  0  0  0  0  0  0  0
   -1.8348   68.7452   65.3996 H   0  0  0  0  0  0  0  0  0  0  0  0
  1  2  1  6
  3  1  1  0
  4  3  1  0
  5  4  1  0
  6  1  1  0
  6  5  1  0
  7  5  1  0
  7  8  1  1
  9  7  1  0
 10  9  1  0
 11 10  1  0
 11 12  1  6
 12  7  1  0
 13 11  1  0
 14 13  1  0
 15 14  1  0
 16 15  1  0
 17 11  1  0
 17 16  1  0
 18 15  1  0
 19 16  1  0
 20 19  1  0
 21 19  1  0
 22 21  1  0
 23 22  1  0
 24 23  1  0
 25 24  1  0
 26 21  1  0
 26 25  1  0
 27 24  1  0
 28 25  1  0
 29 28  1  0
 30 26  1  0
 31 30  1  0
 23 32  1  6
 33 23  1  0
 34 33  1  0
 35 34  2  0
 36 34  1  0
 37 14  1  0
 39 38  1  0
 40 39  1  0
 41 40  1  0
 42  1  1  0
 42 41  1  0
 42 38  1  0
 43 40  1  0
 44 43  1  0
 45 44  1  0
 46 45  1  0
 47 45  1  0
 48 47  1  0
 49 48  1  0
 49 43  1  0
 50 49  1  0
 51 47  1  0
 45 52  1  6
 53 38  1  0
 55 54  1  0
 56 55  1  0
 56 53  1  0
 57 56  1  0
 58 57  1  0
 59 58  1  0
 59 54  1  0
 60 58  1  0
 62 61  1  0
 62 54  1  0
 63 59  1  0
 64 63  1  0
  2 65  1  0
  2 66  1  0
  2 67  1  0
  3 68  1  0
  3 69  1  0
  4 70  1  0
  4 71  1  0
  5 72  1  1
  8 73  1  0
  8 74  1  0
  8 75  1  0
  9 76  1  0
  9 77  1  0
 10 78  1  0
 10 79  1  0
 13 80  1  0
 13 81  1  0
 14 82  1  1
 15 83  1  6
 16 84  1  6
 18 85  1  0
 18 86  1  0
 18 87  1  0
 19 88  1  1
 20 89  1  0
 20 90  1  0
 20 91  1  0
 21 92  1  6
 24 93  1  1
 25 94  1  6
 26 95  1  1
 27 96  1  0
 27 97  1  0
 27 98  1  0
 29 99  1  0
 29100  1  0
 29101  1  0
 31102  1  0
 31103  1  0
 31104  1  0
 32105  1  0
 33106  1  0
 33107  1  0
 37108  1  0
 38109  1  6
 39110  1  0
 39111  1  0
 40112  1  1
 42113  1  6
 43114  1  6
 46115  1  0
 46116  1  0
 46117  1  0
 47118  1  1
 48119  1  0
 48120  1  0
 49121  1  1
 50122  1  0
 50123  1  0
 50124  1  0
 51125  1  0
 51126  1  0
 51127  1  0
 52128  1  0
 54129  1  6
 55130  1  0
 55131  1  0
 56132  1  6
 58133  1  6
 59134  1  1
 60135  1  0
 60136  1  0
 60137  1  0
 61138  1  0
 61139  1  0
 61140  1  0
 64141  1  0
 64142  1  0
 64143  1  0
M  CHG  1  36  -1
M  END
>  <score>  (3) 
-7.45

$$$$
=
     RDKit          3D

143149  0  0  0  0  0  0  0  0999 V2000
    2.3330   61.5430   71.9080 C   0  0  1  0  0  0  0  0  0  0  0  0
    2.0760   60.3400   70.9710 C   0  0  0  0  0  0  0  0  0  0  0  0
    3.7300   62.1050   71.6660 C   0  0  0  0  0  0  0  0  0  0  0  0
    3.5690   62.9710   70.4320 C   0  0  0  0  0  0  0  0  0  0  0  0
    2.0780   63.3090   70.3820 C   0  0  1  0  0  0  0  0  0  0  0  0
    1.4660   62.6170   71.4970 O   0  0  0  0  0  0  0  0  0  0  0  0
    1.7340   64.8190   70.3870 C   0  0  2  0  0  0  0  0  0  0  0  0
    2.9960   65.6580   70.6550 C   0  0  0  0  0  0  0  0  0  0  0  0
    0.5910   65.1840   71.3280 C   0  0  0  0  0  0  0  0  0  0  0  0
    0.0180   66.4290   70.6960 C   0  0  0  0  0  0  0  0  0  0  0  0
    0.2600   66.2170   69.1980 C   0  0  1  0  0  0  0  0  0  0  0  0
    1.2570   65.1890   69.0760 O   0  0  0  0  0  0  0  0  0  0  0  0
   -1.0000   65.7650   68.4510 C   0  0  0  0  0  0  0  0  0  0  0  0
   -1.7400   66.9800   67.9170 C   0  0  1  0  0  0  0  0  0  0  0  0
   -0.8490   67.8220   66.9690 C   0  0  2  0  0  0  0  0  0  0  0  0
    0.6560   67.5490   67.2540 C   0  0  2  0  0  0  0  0  0  0  0  0
    0.7660   67.4550   68.6850 O   0  0  0  0  0  0  0  0  0  0  0  0
   -1.2630   69.2930   67.1210 C   0  0  0  0  0  0  0  0  0  0  0  0
    1.6810   68.5880   66.7110 C   0  0  1  0  0  0  0  0  0  0  0  0
    2.7490   68.9110   67.7860 C   0  0  0  0  0  0  0  0  0  0  0  0
    2.4220   68.1590   65.4010 C   0  0  2  0  0  0  0  0  0  0  0  0
    3.8220   67.9770   65.6620 O   0  0  0  0  0  0  0  0  0  0  0  0
    4.7480   68.9880   65.2400 C   0  0  2  0  0  0  0  0  0  0  0  0
    4.6180   69.2620   63.7130 C   0  0  2  0  0  0  0  0  0  0  0  0
    3.3210   68.6580   63.1310 C   0  0  1  0  0  0  0  0  0  0  0  0
    2.1440   68.9380   64.0960 C   0  0  1  0  0  0  0  0  0  0  0  0
    5.8400   68.8070   62.9000 C   0  0  0  0  0  0  0  0  0  0  0  0
    3.0780   69.2620   61.8440 O   0  0  0  0  0  0  0  0  0  0  0  0
    3.4130   68.3960   60.7650 C   0  0  0  0  0  0  0  0  0  0  0  0
    0.8800   68.4700   63.5840 O   0  0  0  0  0  0  0  0  0  0  0  0
    0.0440   69.4880   63.0500 C   0  0  0  0  0  0  0  0  0  0  0  0
    6.0290   68.4230   65.5370 O   0  0  0  0  0  0  0  0  0  0  0  0
    4.5460   70.2430   66.0940 C   0  0  0  0  0  0  0  0  0  0  0  0
    5.8030   70.6550   66.8410 C   0  0  0  0  0  0  0  0  0  0  0  0
    5.8790   70.2220   68.0280 O   0  0  0  0  0  0  0  0  0  0  0  0
    6.6060   71.3730   66.1870 O   0  0  0  0  0  1  0  0  0  0  0  0
   -2.9160   66.5440   67.2310 O   0  0  0  0  0  0  0  0  0  0  0  0
    0.7980   61.5360   74.1050 C   0  0  1  0  0  0  0  0  0  0  0  0
   -0.2370   60.5570   73.5960 C   0  0  0  0  0  0  0  0  0  0  0  0
    0.5730   59.3000   73.2710 C   0  0  1  0  0  0  0  0  0  0  0  0
    1.9660   59.6490   73.4580 O   0  0  0  0  0  0  0  0  0  0  0  0
    2.0730   61.0960   73.3820 C   0  0  1  0  0  0  0  0  0  0  0  0
    0.2150   58.0690   74.1340 C   0  0  1  0  0  0  0  0  0  0  0  0
   -1.1580   58.1820   74.5240 O   0  0  0  0  0  0  0  0  0  0  0  0
   -1.6180   57.1860   75.4330 C   0  0  1  0  0  0  0  0  0  0  0  0
   -3.0870   57.5200   75.7030 C   0  0  0  0  0  0  0  0  0  0  0  0
   -1.4630   55.7790   74.8100 C   0  0  1  0  0  0  0  0  0  0  0  0
   -0.0310   55.5640   74.3000 C   0  0  0  0  0  0  0  0  0  0  0  0
    0.4240   56.7240   73.3990 C   0  0  2  0  0  0  0  0  0  0  0  0
    1.8590   56.4770   72.9380 C   0  0  0  0  0  0  0  0  0  0  0  0
   -1.8490   54.6420   75.7590 C   0  0  0  0  0  0  0  0  0  0  0  0
   -0.9460   57.3100   76.6810 O   0  0  0  0  0  0  0  0  0  0  0  0
    0.3770   62.8750   73.9180 O   0  0  0  0  0  0  0  0  0  0  0  0
    0.3350   63.4700   77.6090 C   0  0  1  0  0  0  0  0  0  0  0  0
    0.7510   62.8910   76.2590 C   0  0  0  0  0  0  0  0  0  0  0  0
   -0.0600   63.4950   75.1240 C   0  0  2  0  0  0  0  0  0  0  0  0
   -1.4430   63.2510   75.3490 O   0  0  0  0  0  0  0  0  0  0  0  0
   -1.9150   63.9080   76.5250 C   0  0  2  0  0  0  0  0  0  0  0  0
   -1.2010   63.3950   77.7940 C   0  0  2  0  0  0  0  0  0  0  0  0
   -3.4210   63.6700   76.5980 C   0  0  0  0  0  0  0  0  0  0  0  0
    1.4290   61.4390   78.2580 C   0  0  0  0  0  0  0  0  0  0  0  0
    0.9660   62.7200   78.6650 O   0  0  0  0  0  0  0  0  0  0  0  0
   -1.6560   64.2150   78.8880 O   0  0  0  0  0  0  0  0  0  0  0  0
   -2.1610   63.4770   79.9930 C   0  0  0  0  0  0  0  0  0  0  0  0
    1.8838   59.4402   71.5738 H   0  0  0  0  0  0  0  0  0  0  0  0
    1.2024   60.5497   70.3363 H   0  0  0  0  0  0  0  0  0  0  0  0
    2.9590   60.1744   70.3363 H   0  0  0  0  0  0  0  0  0  0  0  0
    4.0636   62.7062   72.5246 H   0  0  0  0  0  0  0  0  0  0  0  0
    4.4861   61.3170   71.5342 H   0  0  0  0  0  0  0  0  0  0  0  0
    4.1711   63.8873   70.5207 H   0  0  0  0  0  0  0  0  0  0  0  0
    3.9091   62.4598   69.5193 H   0  0  0  0  0  0  0  0  0  0  0  0
    1.6807   62.9765   69.4116 H   0  0  0  0  0  0  0  0  0  0  0  0
    3.1463   65.7579   71.7401 H   0  0  0  0  0  0  0  0  0  0  0  0
    3.8691   65.1600   70.2082 H   0  0  0  0  0  0  0  0  0  0  0  0
    2.8746   66.6558   70.2082 H   0  0  0  0  0  0  0  0  0  0  0  0
   -0.1590   64.3804   71.3699 H   0  0  0  0  0  0  0  0  0  0  0  0
    0.9161   65.3351   72.3679 H   0  0  0  0  0  0  0  0  0  0  0  0
   -1.0569   66.5195   70.9112 H   0  0  0  0  0  0  0  0  0  0  0  0
    0.4788   67.3524   71.0768 H   0  0  0  0  0  0  0  0  0  0  0  0
   -0.7142   65.1128   67.6126 H   0  0  0  0  0  0  0  0  0  0  0  0
   -1.6550   65.2126   69.1408 H   0  0  0  0  0  0  0  0  0  0  0  0
   -2.0144   67.6236   68.7658 H   0  0  0  0  0  0  0  0  0  0  0  0
   -0.9937   67.5403   65.9156 H   0  0  0  0  0  0  0  0  0  0  0  0
    0.9299   66.6337   66.7088 H   0  0  0  0  0  0  0  0  0  0  0  0
   -1.3340   69.5454   68.1893 H   0  0  0  0  0  0  0  0  0  0  0  0
   -0.5112   69.9370   66.6413 H   0  0  0  0  0  0  0  0  0  0  0  0
   -2.2403   69.4503   66.6413 H   0  0  0  0  0  0  0  0  0  0  0  0
    1.0732   69.4708   66.4635 H   0  0  0  0  0  0  0  0  0  0  0  0
    2.3130   68.7791   68.7873 H   0  0  0  0  0  0  0  0  0  0  0  0
    3.6061   68.2319   67.6670 H   0  0  0  0  0  0  0  0  0  0  0  0
    3.0861   69.9513   67.6670 H   0  0  0  0  0  0  0  0  0  0  0  0
    1.9484   67.1999   65.1445 H   0  0  0  0  0  0  0  0  0  0  0  0
    4.5685   70.3568   63.6179 H   0  0  0  0  0  0  0  0  0  0  0  0
    3.4192   67.5688   63.0122 H   0  0  0  0  0  0  0  0  0  0  0  0
    2.0752   70.0263   64.2405 H   0  0  0  0  0  0  0  0  0  0  0  0
    6.6458   68.5070   63.5861 H   0  0  0  0  0  0  0  0  0  0  0  0
    5.5611   67.9525   62.2660 H   0  0  0  0  0  0  0  0  0  0  0  0
    6.1879   69.6359   62.2660 H   0  0  0  0  0  0  0  0  0  0  0  0
    3.7829   67.4398   61.1636 H   0  0  0  0  0  0  0  0  0  0  0  0
    2.5198   68.2155   60.1488 H   0  0  0  0  0  0  0  0  0  0  0  0
    4.1951   68.8635   60.1488 H   0  0  0  0  0  0  0  0  0  0  0  0
   -0.4189   70.0517   63.8734 H   0  0  0  0  0  0  0  0  0  0  0  0
    0.6461   70.1701   62.4317 H   0  0  0  0  0  0  0  0  0  0  0  0
   -0.7421   69.0301   62.4317 H   0  0  0  0  0  0  0  0  0  0  0  0
    6.1471   68.3709   66.5185 H   0  0  0  0  0  0  0  0  0  0  0  0
    4.2408   71.0703   65.4364 H   0  0  0  0  0  0  0  0  0  0  0  0
    3.7752   70.0127   66.8443 H   0  0  0  0  0  0  0  0  0  0  0  0
   -3.6074   66.2877   67.8915 H   0  0  0  0  0  0  0  0  0  0  0  0
    0.9692   61.5233   75.1915 H   0  0  0  0  0  0  0  0  0  0  0  0
   -0.9910   60.3476   74.3691 H   0  0  0  0  0  0  0  0  0  0  0  0
   -0.7919   60.9403   72.7270 H   0  0  0  0  0  0  0  0  0  0  0  0
    0.3427   58.9953   72.2395 H   0  0  0  0  0  0  0  0  0  0  0  0
    2.9306   61.5851   73.8672 H   0  0  0  0  0  0  0  0  0  0  0  0
    0.8904   58.0622   75.0022 H   0  0  0  0  0  0  0  0  0  0  0  0
   -3.2605   57.5595   76.7885 H   0  0  0  0  0  0  0  0  0  0  0  0
   -3.3290   58.4961   75.2573 H   0  0  0  0  0  0  0  0  0  0  0  0
   -3.7273   56.7445   75.2573 H   0  0  0  0  0  0  0  0  0  0  0  0
   -2.1703   55.7463   73.9682 H   0  0  0  0  0  0  0  0  0  0  0  0
    0.6488   55.4924   75.1618 H   0  0  0  0  0  0  0  0  0  0  0  0
   -0.0100   54.6371   73.7080 H   0  0  0  0  0  0  0  0  0  0  0  0
   -0.1873   56.7801   72.4862 H   0  0  0  0  0  0  0  0  0  0  0  0
    2.5120   56.3646   73.8161 H   0  0  0  0  0  0  0  0  0  0  0  0
    1.8969   55.5591   72.3330 H   0  0  0  0  0  0  0  0  0  0  0  0
    2.2016   57.3294   72.3330 H   0  0  0  0  0  0  0  0  0  0  0  0
   -1.7347   54.9785   76.8000 H   0  0  0  0  0  0  0  0  0  0  0  0
   -2.8953   54.3539   75.5795 H   0  0  0  0  0  0  0  0  0  0  0  0
   -1.1944   53.7764   75.5795 H   0  0  0  0  0  0  0  0  0  0  0  0
   -1.5952   57.1902   77.4187 H   0  0  0  0  0  0  0  0  0  0  0  0
    0.6476   64.5241   77.6444 H   0  0  0  0  0  0  0  0  0  0  0  0
    1.8168   63.1048   76.0908 H   0  0  0  0  0  0  0  0  0  0  0  0
    0.5690   61.8063   76.2761 H   0  0  0  0  0  0  0  0  0  0  0  0
    0.0833   64.5838   75.0607 H   0  0  0  0  0  0  0  0  0  0  0  0
   -1.6954   64.9846   76.4729 H   0  0  0  0  0  0  0  0  0  0  0  0
   -1.4380   62.3401   77.9964 H   0  0  0  0  0  0  0  0  0  0  0  0
   -3.7338   63.6206   77.6514 H   0  0  0  0  0  0  0  0  0  0  0  0
   -3.9475   64.4961   76.0976 H   0  0  0  0  0  0  0  0  0  0  0  0
   -3.6671   62.7218   76.0976 H   0  0  0  0  0  0  0  0  0  0  0  0
    1.6493   60.8294   79.1467 H   0  0  0  0  0  0  0  0  0  0  0  0
    0.6533   60.9429   77.6562 H   0  0  0  0  0  0  0  0  0  0  0  0
    2.3426   61.5535   77.6562 H   0  0  0  0  0  0  0  0  0  0  0  0
   -1.8360   63.9520   80.9304 H   0  0  0  0  0  0  0  0  0  0  0  0
   -3.2601   63.4612   79.9518 H   0  0  0  0  0  0  0  0  0  0  0  0
   -1.7777   62.4468   79.9518 H   0  0  0  0  0  0  0  0  0  0  0  0
  1  2  1  6
  3  1  1  0
  4  3  1  0
  5  4  1  0
  6  1  1  0
  6  5  1  0
  7  5  1  0
  7  8  1  1
  9  7  1  0
 10  9  1  0
 11 10  1  0
 11 12  1  1
 12  7  1  0
 13 11  1  0
 14 13  1  0
 15 14  1  0
 16 15  1  0
 17 11  1  0
 17 16  1  0
 18 15  1  0
 19 16  1  0
 20 19  1  0
 21 19  1  0
 22 21  1  0
 23 22  1  0
 24 23  1  0
 25 24  1  0
 26 21  1  0
 26 25  1  0
 27 24  1  0
 28 25  1  0
 29 28  1  0
 30 26  1  0
 31 30  1  0
 23 32  1  6
 33 23  1  0
 34 33  1  0
 35 34  2  0
 36 34  1  0
 37 14  1  0
 39 38  1  0
 40 39  1  0
 41 40  1  0
 42  1  1  0
 42 41  1  0
 42 38  1  0
 43 40  1  0
 44 43  1  0
 45 44  1  0
 46 45  1  0
 47 45  1  0
 48 47  1  0
 49 48  1  0
 49 43  1  0
 50 49  1  0
 51 47  1  0
 45 52  1  1
 53 38  1  0
 55 54  1  0
 56 55  1  0
 56 53  1  0
 57 56  1  0
 58 57  1  0
 59 58  1  0
 59 54  1  0
 60 58  1  0
 62 61  1  0
 62 54  1  0
 63 59  1  0
 64 63  1  0
  2 65  1  0
  2 66  1  0
  2 67  1  0
  3 68  1  0
  3 69  1  0
  4 70  1  0
  4 71  1  0
  5 72  1  6
  8 73  1  0
  8 74  1  0
  8 75  1  0
  9 76  1  0
  9 77  1  0
 10 78  1  0
 10 79  1  0
 13 80  1  0
 13 81  1  0
 14 82  1  1
 15 83  1  6
 16 84  1  6
 18 85  1  0
 18 86  1  0
 18 87  1  0
 19 88  1  6
 20 89  1  0
 20 90  1  0
 20 91  1  0
 21 92  1  6
 24 93  1  1
 25 94  1  6
 26 95  1  1
 27 96  1  0
 27 97  1  0
 27 98  1  0
 29 99  1  0
 29100  1  0
 29101  1  0
 31102  1  0
 31103  1  0
 31104  1  0
 32105  1  0
 33106  1  0
 33107  1  0
 37108  1  0
 38109  1  1
 39110  1  0
 39111  1  0
 40112  1  6
 42113  1  1
 43114  1  1
 46115  1  0
 46116  1  0
 46117  1  0
 47118  1  6
 48119  1  0
 48120  1  0
 49121  1  6
 50122  1  0
 50123  1  0
 50124  1  0
 51125  1  0
 51126  1  0
 51127  1  0
 52128  1  0
 54129  1  6
 55130  1  0
 55131  1  0
 56132  1  6
 58133  1  6
 59134  1  1
 60135  1  0
 60136  1  0
 60137  1  0
 61138  1  0
 61139  1  0
 61140  1  0
 64141  1  0
 64142  1  0
 64143  1  0
M  CHG  1  36  -1
M  END
>  <score>  (4) 
-7.348

$$$$
=
     RDKit          3D

143149  0  0  0  0  0  0  0  0999 V2000
    0.6800   57.2290   75.2870 C   0  0  1  0  0  0  0  0  0  0  0  0
    1.7580   56.1240   75.2020 C   0  0  0  0  0  0  0  0  0  0  0  0
   -0.3900   57.0000   74.2260 C   0  0  0  0  0  0  0  0  0  0  0  0
   -1.2870   55.9380   74.8320 C   0  0  0  0  0  0  0  0  0  0  0  0
   -1.0460   56.0360   76.3390 C   0  0  1  0  0  0  0  0  0  0  0  0
   -0.0360   57.0550   76.5250 O   0  0  0  0  0  0  0  0  0  0  0  0
   -2.3030   56.3110   77.2010 C   0  0  2  0  0  0  0  0  0  0  0  0
   -1.9020   56.6080   78.6570 C   0  0  0  0  0  0  0  0  0  0  0  0
   -3.3620   55.2190   77.1080 C   0  0  0  0  0  0  0  0  0  0  0  0
   -4.6400   55.9610   77.4130 C   0  0  0  0  0  0  0  0  0  0  0  0
   -4.3790   57.3680   76.8670 C   0  0  1  0  0  0  0  0  0  0  0  0
   -2.9580   57.4960   76.6980 O   0  0  0  0  0  0  0  0  0  0  0  0
   -5.0540   57.6130   75.5120 C   0  0  0  0  0  0  0  0  0  0  0  0
   -6.4330   58.2120   75.7300 C   0  0  1  0  0  0  0  0  0  0  0  0
   -6.3630   59.5410   76.5230 C   0  0  2  0  0  0  0  0  0  0  0  0
   -5.0430   59.6130   77.3450 C   0  0  2  0  0  0  0  0  0  0  0  0
   -4.8410   58.2860   77.8630 O   0  0  0  0  0  0  0  0  0  0  0  0
   -7.6390   59.6520   77.3690 C   0  0  0  0  0  0  0  0  0  0  0  0
   -4.9860   60.6500   78.5050 C   0  0  1  0  0  0  0  0  0  0  0  0
   -4.9240   59.9300   79.8750 C   0  0  0  0  0  0  0  0  0  0  0  0
   -3.7890   61.6560   78.4290 C   0  0  2  0  0  0  0  0  0  0  0  0
   -4.2770   63.0060   78.4300 O   0  0  0  0  0  0  0  0  0  0  0  0
   -4.3020   63.7410   77.1980 C   0  0  2  0  0  0  0  0  0  0  0  0
   -2.8870   63.7860   76.5470 C   0  0  2  0  0  0  0  0  0  0  0  0
   -1.9300   62.7560   77.1850 C   0  0  1  0  0  0  0  0  0  0  0  0
   -2.6750   61.4140   77.3850 C   0  0  1  0  0  0  0  0  0  0  0  0
   -2.2550   65.1870   76.5470 C   0  0  0  0  0  0  0  0  0  0  0  0
   -0.7990   62.5840   76.3060 O   0  0  0  0  0  0  0  0  0  0  0  0
    0.4370   62.8840   76.9460 C   0  0  0  0  0  0  0  0  0  0  0  0
   -1.8230   60.3750   77.9080 O   0  0  0  0  0  0  0  0  0  0  0  0
   -1.3450   60.6100   79.2260 C   0  0  0  0  0  0  0  0  0  0  0  0
   -4.7100   65.0550   77.5920 O   0  0  0  0  0  0  0  0  0  0  0  0
   -5.3670   63.1430   76.2760 C   0  0  0  0  0  0  0  0  0  0  0  0
   -6.2650   64.1970   75.6520 C   0  0  0  0  0  0  0  0  0  0  0  0
   -7.4740   64.1510   76.0240 O   0  0  0  0  0  0  0  0  0  0  0  0
   -5.6950   64.9810   74.8470 O   0  0  0  0  0  1  0  0  0  0  0  0
   -7.0530   58.4270   74.4600 O   0  0  0  0  0  0  0  0  0  0  0  0
    2.8750   58.7120   74.8760 C   0  0  1  0  0  0  0  0  0  0  0  0
    2.9130   58.5610   73.3710 C   0  0  0  0  0  0  0  0  0  0  0  0
    1.5630   59.1170   72.9110 C   0  0  1  0  0  0  0  0  0  0  0  0
    0.8060   59.4040   74.1110 O   0  0  0  0  0  0  0  0  0  0  0  0
    1.3810   58.6230   75.1940 C   0  0  1  0  0  0  0  0  0  0  0  0
    1.6620   60.3830   72.0310 C   0  0  1  0  0  0  0  0  0  0  0  0
    1.3950   61.5230   72.8550 O   0  0  0  0  0  0  0  0  0  0  0  0
    1.3230   62.7690   72.1690 C   0  0  1  0  0  0  0  0  0  0  0  0
    1.0220   63.8150   73.2450 C   0  0  0  0  0  0  0  0  0  0  0  0
    2.6590   63.0630   71.4500 C   0  0  1  0  0  0  0  0  0  0  0  0
    3.0790   61.8750   70.5720 C   0  0  0  0  0  0  0  0  0  0  0  0
    3.0450   60.5560   71.3600 C   0  0  2  0  0  0  0  0  0  0  0  0
    3.4450   59.4040   70.4400 C   0  0  0  0  0  0  0  0  0  0  0  0
    2.6360   64.3430   70.6100 C   0  0  0  0  0  0  0  0  0  0  0  0
    0.2090   62.7790   71.2830 O   0  0  0  0  0  0  0  0  0  0  0  0
    3.7280   57.7780   75.5100 O   0  0  0  0  0  0  0  0  0  0  0  0
    4.8990   57.4290   79.0440 C   0  0  1  0  0  0  0  0  0  0  0  0
    4.3860   57.0320   77.6620 C   0  0  0  0  0  0  0  0  0  0  0  0
    4.2370   58.2430   76.7570 C   0  0  2  0  0  0  0  0  0  0  0  0
    3.3440   59.1750   77.3550 O   0  0  0  0  0  0  0  0  0  0  0  0
    3.8600   59.6940   78.5810 C   0  0  2  0  0  0  0  0  0  0  0  0
    4.0570   58.5850   79.6370 C   0  0  2  0  0  0  0  0  0  0  0  0
    2.8760   60.7570   79.0660 C   0  0  0  0  0  0  0  0  0  0  0  0
    3.5180   55.7180   79.9980 C   0  0  0  0  0  0  0  0  0  0  0  0
    4.8160   56.2950   79.9290 O   0  0  0  0  0  0  0  0  0  0  0  0
    4.6990   59.1990   80.7700 O   0  0  0  0  0  0  0  0  0  0  0  0
    6.0110   59.6760   80.5040 C   0  0  0  0  0  0  0  0  0  0  0  0
    2.0535   55.8211   76.2174 H   0  0  0  0  0  0  0  0  0  0  0  0
    1.3509   55.2552   74.6641 H   0  0  0  0  0  0  0  0  0  0  0  0
    2.6366   56.5095   74.6641 H   0  0  0  0  0  0  0  0  0  0  0  0
   -0.9539   57.9247   74.0336 H   0  0  0  0  0  0  0  0  0  0  0  0
    0.0329   56.6944   73.2576 H   0  0  0  0  0  0  0  0  0  0  0  0
   -2.3418   56.1401   74.5944 H   0  0  0  0  0  0  0  0  0  0  0  0
   -1.0649   54.9343   74.4405 H   0  0  0  0  0  0  0  0  0  0  0  0
   -0.7192   55.0500   76.7010 H   0  0  0  0  0  0  0  0  0  0  0  0
   -2.5949   56.0948   79.3401 H   0  0  0  0  0  0  0  0  0  0  0  0
   -0.8777   56.2490   78.8357 H   0  0  0  0  0  0  0  0  0  0  0  0
   -1.9468   57.6925   78.8357 H   0  0  0  0  0  0  0  0  0  0  0  0
   -3.3903   54.7802   76.0997 H   0  0  0  0  0  0  0  0  0  0  0  0
   -3.1767   54.3754   77.7891 H   0  0  0  0  0  0  0  0  0  0  0  0
   -5.4961   55.4946   76.9035 H   0  0  0  0  0  0  0  0  0  0  0  0
   -4.8907   55.9580   78.4841 H   0  0  0  0  0  0  0  0  0  0  0  0
   -4.4423   58.3087   74.9189 H   0  0  0  0  0  0  0  0  0  0  0  0
   -5.1515   56.6581   74.9747 H   0  0  0  0  0  0  0  0  0  0  0  0
   -7.0294   57.5067   76.3274 H   0  0  0  0  0  0  0  0  0  0  0  0
   -6.3294   60.4133   75.8537 H   0  0  0  0  0  0  0  0  0  0  0  0
   -4.2538   59.9688   76.6663 H   0  0  0  0  0  0  0  0  0  0  0  0
   -7.3744   59.6290   78.4364 H   0  0  0  0  0  0  0  0  0  0  0  0
   -8.1507   60.5980   77.1384 H   0  0  0  0  0  0  0  0  0  0  0  0
   -8.3064   58.8085   77.1384 H   0  0  0  0  0  0  0  0  0  0  0  0
   -5.9097   61.2372   78.3957 H   0  0  0  0  0  0  0  0  0  0  0  0
   -4.9880   60.6735   80.6832 H   0  0  0  0  0  0  0  0  0  0  0  0
   -5.7648   59.2255   79.9574 H   0  0  0  0  0  0  0  0  0  0  0  0
   -3.9751   59.3797   79.9574 H   0  0  0  0  0  0  0  0  0  0  0  0
   -3.2243   61.4482   79.3499 H   0  0  0  0  0  0  0  0  0  0  0  0
   -3.0429   63.5126   75.4930 H   0  0  0  0  0  0  0  0  0  0  0  0
   -1.5812   63.1069   78.1674 H   0  0  0  0  0  0  0  0  0  0  0  0
   -3.0539   61.0875   76.4053 H   0  0  0  0  0  0  0  0  0  0  0  0
   -2.1042   65.5212   77.5841 H   0  0  0  0  0  0  0  0  0  0  0  0
   -1.2855   65.1519   76.0285 H   0  0  0  0  0  0  0  0  0  0  0  0
   -2.9229   65.8906   76.0285 H   0  0  0  0  0  0  0  0  0  0  0  0
    0.3023   62.8513   78.0372 H   0  0  0  0  0  0  0  0  0  0  0  0
    1.1936   62.1434   76.6476 H   0  0  0  0  0  0  0  0  0  0  0  0
    0.7700   63.8890   76.6476 H   0  0  0  0  0  0  0  0  0  0  0  0
   -2.0846   60.2464   79.9545 H   0  0  0  0  0  0  0  0  0  0  0  0
   -0.3940   60.0767   79.3717 H   0  0  0  0  0  0  0  0  0  0  0  0
   -1.1865   61.6887   79.3717 H   0  0  0  0  0  0  0  0  0  0  0  0
   -4.7279   65.1126   78.5802 H   0  0  0  0  0  0  0  0  0  0  0  0
   -4.8632   62.5889   75.4703 H   0  0  0  0  0  0  0  0  0  0  0  0
   -6.0031   62.4861   76.8875 H   0  0  0  0  0  0  0  0  0  0  0  0
   -7.9796   58.7483   74.5953 H   0  0  0  0  0  0  0  0  0  0  0  0
    3.2778   59.6577   75.2676 H   0  0  0  0  0  0  0  0  0  0  0  0
    3.7424   59.1411   72.9403 H   0  0  0  0  0  0  0  0  0  0  0  0
    3.0738   57.5203   73.0530 H   0  0  0  0  0  0  0  0  0  0  0  0
    1.0781   58.3667   72.2692 H   0  0  0  0  0  0  0  0  0  0  0  0
    1.2277   58.9661   76.2278 H   0  0  0  0  0  0  0  0  0  0  0  0
    0.9272   60.2818   71.2187 H   0  0  0  0  0  0  0  0  0  0  0  0
    1.1515   63.3649   74.2403 H   0  0  0  0  0  0  0  0  0  0  0  0
    1.7122   64.6643   73.1340 H   0  0  0  0  0  0  0  0  0  0  0  0
   -0.0140   64.1676   73.1340 H   0  0  0  0  0  0  0  0  0  0  0  0
    3.3985   63.2190   72.2493 H   0  0  0  0  0  0  0  0  0  0  0  0
    2.3897   61.7997   69.7181 H   0  0  0  0  0  0  0  0  0  0  0  0
    4.1096   62.0462   70.2276 H   0  0  0  0  0  0  0  0  0  0  0  0
    3.7788   60.5653   72.1794 H   0  0  0  0  0  0  0  0  0  0  0  0
    3.7459   58.5374   71.0471 H   0  0  0  0  0  0  0  0  0  0  0  0
    2.5901   59.1279   69.8052 H   0  0  0  0  0  0  0  0  0  0  0  0
    4.2870   59.7171   69.8052 H   0  0  0  0  0  0  0  0  0  0  0  0
    2.6203   65.2184   71.2760 H   0  0  0  0  0  0  0  0  0  0  0  0
    3.5336   64.3812   69.9753 H   0  0  0  0  0  0  0  0  0  0  0  0
    1.7376   64.3490   69.9753 H   0  0  0  0  0  0  0  0  0  0  0  0
   -0.6302   62.7865   71.8081 H   0  0  0  0  0  0  0  0  0  0  0  0
    5.9420   57.7632   78.9416 H   0  0  0  0  0  0  0  0  0  0  0  0
    5.0975   56.3288   77.2046 H   0  0  0  0  0  0  0  0  0  0  0  0
    3.3972   56.5649   77.7808 H   0  0  0  0  0  0  0  0  0  0  0  0
    5.2002   58.7517   76.6039 H   0  0  0  0  0  0  0  0  0  0  0  0
    4.8560   60.1318   78.4190 H   0  0  0  0  0  0  0  0  0  0  0  0
    3.0991   58.1427   79.9481 H   0  0  0  0  0  0  0  0  0  0  0  0
    2.8635   60.7705   80.1658 H   0  0  0  0  0  0  0  0  0  0  0  0
    3.1871   61.7431   78.6907 H   0  0  0  0  0  0  0  0  0  0  0  0
    1.8689   60.5229   78.6907 H   0  0  0  0  0  0  0  0  0  0  0  0
    3.2293   55.5897   81.0517 H   0  0  0  0  0  0  0  0  0  0  0  0
    2.7955   56.3797   79.4979 H   0  0  0  0  0  0  0  0  0  0  0  0
    3.5252   54.7383   79.4979 H   0  0  0  0  0  0  0  0  0  0  0  0
    6.5319   59.8654   81.4541 H   0  0  0  0  0  0  0  0  0  0  0  0
    6.5652   58.9218   79.9260 H   0  0  0  0  0  0  0  0  0  0  0  0
    5.9514   60.6100   79.9260 H   0  0  0  0  0  0  0  0  0  0  0  0
  1  2  1  6
  3  1  1  0
  4  3  1  0
  5  4  1  0
  6  1  1  0
  6  5  1  0
  7  5  1  0
  7  8  1  1
  9  7  1  0
 10  9  1  0
 11 10  1  0
 11 12  1  6
 12  7  1  0
 13 11  1  0
 14 13  1  0
 15 14  1  0
 16 15  1  0
 17 11  1  0
 17 16  1  0
 18 15  1  0
 19 16  1  0
 20 19  1  0
 21 19  1  0
 22 21  1  0
 23 22  1  0
 24 23  1  0
 25 24  1  0
 26 21  1  0
 26 25  1  0
 27 24  1  0
 28 25  1  0
 29 28  1  0
 30 26  1  0
 31 30  1  0
 23 32  1  1
 33 23  1  0
 34 33  1  0
 35 34  2  0
 36 34  1  0
 37 14  1  0
 39 38  1  0
 40 39  1  0
 41 40  1  0
 42  1  1  0
 42 41  1  0
 42 38  1  0
 43 40  1  0
 44 43  1  0
 45 44  1  0
 46 45  1  0
 47 45  1  0
 48 47  1  0
 49 48  1  0
 49 43  1  0
 50 49  1  0
 51 47  1  0
 45 52  1  6
 53 38  1  0
 55 54  1  0
 56 55  1  0
 56 53  1  0
 57 56  1  0
 58 57  1  0
 59 58  1  0
 59 54  1  0
 60 58  1  0
 62 61  1  0
 62 54  1  0
 63 59  1  0
 64 63  1  0
  2 65  1  0
  2 66  1  0
  2 67  1  0
  3 68  1  0
  3 69  1  0
  4 70  1  0
  4 71  1  0
  5 72  1  1
  8 73  1  0
  8 74  1  0
  8 75  1  0
  9 76  1  0
  9 77  1  0
 10 78  1  0
 10 79  1  0
 13 80  1  0
 13 81  1  0
 14 82  1  1
 15 83  1  6
 16 84  1  6
 18 85  1  0
 18 86  1  0
 18 87  1  0
 19 88  1  1
 20 89  1  0
 20 90  1  0
 20 91  1  0
 21 92  1  1
 24 93  1  6
 25 94  1  1
 26 95  1  6
 27 96  1  0
 27 97  1  0
 27 98  1  0
 29 99  1  0
 29100  1  0
 29101  1  0
 31102  1  0
 31103  1  0
 31104  1  0
 32105  1  0
 33106  1  0
 33107  1  0
 37108  1  0
 38109  1  6
 39110  1  0
 39111  1  0
 40112  1  6
 42113  1  1
 43114  1  6
 46115  1  0
 46116  1  0
 46117  1  0
 47118  1  1
 48119  1  0
 48120  1  0
 49121  1  1
 50122  1  0
 50123  1  0
 50124  1  0
 51125  1  0
 51126  1  0
 51127  1  0
 52128  1  0
 54129  1  6
 55130  1  0
 55131  1  0
 56132  1  6
 58133  1  6
 59134  1  1
 60135  1  0
 60136  1  0
 60137  1  0
 61138  1  0
 61139  1  0
 61140  1  0
 64141  1  0
 64142  1  0
 64143  1  0
M  CHG  1  36  -1
M  END
>  <score>  (5) 
-7.28

$$$$
=
     RDKit          3D

143149  0  0  0  0  0  0  0  0999 V2000
   -0.0990   64.4140   74.2340 C   0  0  1  0  0  0  0  0  0  0  0  0
   -0.5590   65.8830   74.0810 C   0  0  0  0  0  0  0  0  0  0  0  0
    1.3310   64.3650   74.7600 C   0  0  0  0  0  0  0  0  0  0  0  0
    1.1820   64.5800   76.2520 C   0  0  0  0  0  0  0  0  0  0  0  0
   -0.2610   64.1760   76.5640 C   0  0  1  0  0  0  0  0  0  0  0  0
   -0.8660   63.8190   75.2980 O   0  0  0  0  0  0  0  0  0  0  0  0
   -0.4290   63.0530   77.6160 C   0  0  2  0  0  0  0  0  0  0  0  0
   -1.9100   62.6530   77.7440 C   0  0  0  0  0  0  0  0  0  0  0  0
    0.1960   63.3800   78.9670 C   0  0  0  0  0  0  0  0  0  0  0  0
    0.5100   62.0170   79.5330 C   0  0  0  0  0  0  0  0  0  0  0  0
    0.8150   61.1730   78.2910 C   0  0  1  0  0  0  0  0  0  0  0  0
    0.2820   61.8820   77.1610 O   0  0  0  0  0  0  0  0  0  0  0  0
    2.3180   60.9650   78.0700 C   0  0  0  0  0  0  0  0  0  0  0  0
    2.7620   59.6840   78.7560 C   0  0  1  0  0  0  0  0  0  0  0  0
    1.9840   58.4520   78.2300 C   0  0  2  0  0  0  0  0  0  0  0  0
    0.6310   58.8930   77.6010 C   0  0  2  0  0  0  0  0  0  0  0  0
    0.1260   59.9290   78.4610 O   0  0  0  0  0  0  0  0  0  0  0  0
    1.8450   57.4540   79.3880 C   0  0  0  0  0  0  0  0  0  0  0  0
   -0.4530   57.7920   77.4050 C   0  0  1  0  0  0  0  0  0  0  0  0
   -1.8460   58.4340   77.1870 C   0  0  0  0  0  0  0  0  0  0  0  0
   -0.1810   56.8040   76.2220 C   0  0  2  0  0  0  0  0  0  0  0  0
   -1.4220   56.3630   75.6500 O   0  0  0  0  0  0  0  0  0  0  0  0
   -1.9050   55.0480   75.9590 C   0  0  2  0  0  0  0  0  0  0  0  0
   -0.8460   53.9650   75.5960 C   0  0  2  0  0  0  0  0  0  0  0  0
    0.5460   54.5860   75.3460 C   0  0  1  0  0  0  0  0  0  0  0  0
    0.8340   55.6570   76.4270 C   0  0  1  0  0  0  0  0  0  0  0  0
   -1.2600   53.0700   74.4180 C   0  0  0  0  0  0  0  0  0  0  0  0
    1.5290   53.5320   75.4000 O   0  0  0  0  0  0  0  0  0  0  0  0
    1.4180   52.7460   76.5820 C   0  0  0  0  0  0  0  0  0  0  0  0
    2.1520   56.2300   76.3060 O   0  0  0  0  0  0  0  0  0  0  0  0
    2.4320   56.8060   75.0370 C   0  0  0  0  0  0  0  0  0  0  0  0
   -3.0630   54.9070   75.1300 O   0  0  0  0  0  0  0  0  0  0  0  0
   -2.3330   55.0000   77.4270 C   0  0  0  0  0  0  0  0  0  0  0  0
   -3.8370   54.8810   77.5990 C   0  0  0  0  0  0  0  0  0  0  0  0
   -4.2680   53.6950   77.6910 O   0  0  0  0  0  0  0  0  0  0  0  0
   -4.4630   55.9750   77.6270 O   0  0  0  0  0  1  0  0  0  0  0  0
    4.1650   59.5070   78.5490 O   0  0  0  0  0  0  0  0  0  0  0  0
    0.4660   64.1390   71.6280 C   0  0  1  0  0  0  0  0  0  0  0  0
    1.8220   63.4930   71.8070 C   0  0  0  0  0  0  0  0  0  0  0  0
    1.5240   62.2330   72.6230 C   0  0  1  0  0  0  0  0  0  0  0  0
    0.1220   62.2940   72.9770 O   0  0  0  0  0  0  0  0  0  0  0  0
   -0.3010   63.6800   72.8700 C   0  0  1  0  0  0  0  0  0  0  0  0
    1.8290   60.9090   71.8870 C   0  0  1  0  0  0  0  0  0  0  0  0
    3.1890   60.9480   71.4410 O   0  0  0  0  0  0  0  0  0  0  0  0
    3.5970   59.8500   70.6310 C   0  0  1  0  0  0  0  0  0  0  0  0
    5.0610   60.1200   70.2770 C   0  0  0  0  0  0  0  0  0  0  0  0
    3.4370   58.5220   71.4070 C   0  0  1  0  0  0  0  0  0  0  0  0
    2.0200   58.3960   71.9850 C   0  0  0  0  0  0  0  0  0  0  0  0
    1.6200   59.6550   72.7700 C   0  0  2  0  0  0  0  0  0  0  0  0
    0.1980   59.4930   73.3020 C   0  0  0  0  0  0  0  0  0  0  0  0
    3.7670   57.2810   70.5740 C   0  0  0  0  0  0  0  0  0  0  0  0
    2.8840   59.8550   69.4000 O   0  0  0  0  0  0  0  0  0  0  0  0
    0.5830   65.5340   71.4190 O   0  0  0  0  0  0  0  0  0  0  0  0
    1.3830   67.6220   68.4210 C   0  0  1  0  0  0  0  0  0  0  0  0
    1.4010   67.1280   69.8660 C   0  0  0  0  0  0  0  0  0  0  0  0
    0.5250   65.8990   70.0430 C   0  0  2  0  0  0  0  0  0  0  0  0
   -0.8080   66.2070   69.6540 O   0  0  0  0  0  0  0  0  0  0  0  0
   -0.8970   66.5230   68.2650 C   0  0  2  0  0  0  0  0  0  0  0  0
   -0.0700   67.7770   67.9070 C   0  0  2  0  0  0  0  0  0  0  0  0
   -2.3770   66.7220   67.9450 C   0  0  0  0  0  0  0  0  0  0  0  0
    2.7160   69.1220   67.1130 C   0  0  0  0  0  0  0  0  0  0  0  0
    2.0400   68.9010   68.3440 O   0  0  0  0  0  0  0  0  0  0  0  0
   -0.1270   67.9180   66.4750 O   0  0  0  0  0  0  0  0  0  0  0  0
   -0.8570   69.0560   66.0340 C   0  0  0  0  0  0  0  0  0  0  0  0
   -0.6987   66.3291   75.0767 H   0  0  0  0  0  0  0  0  0  0  0  0
    0.2044   66.4506   73.5287 H   0  0  0  0  0  0  0  0  0  0  0  0
   -1.5098   65.9139   73.5287 H   0  0  0  0  0  0  0  0  0  0  0  0
    1.7913   63.3882   74.5500 H   0  0  0  0  0  0  0  0  0  0  0  0
    1.9811   65.1161   74.2875 H   0  0  0  0  0  0  0  0  0  0  0  0
    1.8901   63.9472   76.8071 H   0  0  0  0  0  0  0  0  0  0  0  0
    1.3945   65.6188   76.5447 H   0  0  0  0  0  0  0  0  0  0  0  0
   -0.7626   65.0291   77.0442 H   0  0  0  0  0  0  0  0  0  0  0  0
   -2.1795   62.5802   78.8080 H   0  0  0  0  0  0  0  0  0  0  0  0
   -2.5386   63.4136   77.2577 H   0  0  0  0  0  0  0  0  0  0  0  0
   -2.0702   61.6794   77.2577 H   0  0  0  0  0  0  0  0  0  0  0  0
    1.1111   63.9781   78.8451 H   0  0  0  0  0  0  0  0  0  0  0  0
   -0.4607   63.9785   79.6155 H   0  0  0  0  0  0  0  0  0  0  0  0
    1.3821   62.0609   80.2020 H   0  0  0  0  0  0  0  0  0  0  0  0
   -0.3114   61.6058   80.1382 H   0  0  0  0  0  0  0  0  0  0  0  0
    2.5228   60.8927   76.9917 H   0  0  0  0  0  0  0  0  0  0  0  0
    2.8706   61.8165   78.4937 H   0  0  0  0  0  0  0  0  0  0  0  0
    2.5469   59.7714   79.8312 H   0  0  0  0  0  0  0  0  0  0  0  0
    2.5244   57.9463   77.4162 H   0  0  0  0  0  0  0  0  0  0  0  0
    0.8401   59.2109   76.5689 H   0  0  0  0  0  0  0  0  0  0  0  0
    1.9197   57.9905   80.3454 H   0  0  0  0  0  0  0  0  0  0  0  0
    0.8683   56.9521   79.3242 H   0  0  0  0  0  0  0  0  0  0  0  0
    2.6474   56.7043   79.3242 H   0  0  0  0  0  0  0  0  0  0  0  0
   -0.4177   57.2021   78.3328 H   0  0  0  0  0  0  0  0  0  0  0  0
   -2.3082   58.6470   78.1622 H   0  0  0  0  0  0  0  0  0  0  0  0
   -1.7335   59.3711   76.6220 H   0  0  0  0  0  0  0  0  0  0  0  0
   -2.4854   57.7397   76.6220 H   0  0  0  0  0  0  0  0  0  0  0  0
    0.3792   57.4184   75.5018 H   0  0  0  0  0  0  0  0  0  0  0  0
   -0.7849   53.3117   76.4788 H   0  0  0  0  0  0  0  0  0  0  0  0
    0.5830   55.0712   74.3595 H   0  0  0  0  0  0  0  0  0  0  0  0
    0.7574   55.1743   77.4124 H   0  0  0  0  0  0  0  0  0  0  0  0
   -1.6927   52.1346   74.8025 H   0  0  0  0  0  0  0  0  0  0  0  0
   -2.0070   53.5943   73.8040 H   0  0  0  0  0  0  0  0  0  0  0  0
   -0.3767   52.8402   73.8040 H   0  0  0  0  0  0  0  0  0  0  0  0
    1.5098   53.3961   77.4646 H   0  0  0  0  0  0  0  0  0  0  0  0
    0.4399   52.2429   76.5973 H   0  0  0  0  0  0  0  0  0  0  0  0
    2.2185   51.9917   76.5973 H   0  0  0  0  0  0  0  0  0  0  0  0
    2.9090   57.7873   75.1769 H   0  0  0  0  0  0  0  0  0  0  0  0
    3.1096   56.1456   74.4760 H   0  0  0  0  0  0  0  0  0  0  0  0
    1.4941   56.9309   74.4760 H   0  0  0  0  0  0  0  0  0  0  0  0
   -3.8667   54.8091   75.6997 H   0  0  0  0  0  0  0  0  0  0  0  0
   -1.8551   54.1316   77.9040 H   0  0  0  0  0  0  0  0  0  0  0  0
   -2.0206   55.9459   77.8936 H   0  0  0  0  0  0  0  0  0  0  0  0
    4.6231   59.4492   79.4247 H   0  0  0  0  0  0  0  0  0  0  0  0
   -0.0859   63.8404   70.7245 H   0  0  0  0  0  0  0  0  0  0  0  0
    2.2636   63.2336   70.8335 H   0  0  0  0  0  0  0  0  0  0  0  0
    2.5466   64.1570   72.3009 H   0  0  0  0  0  0  0  0  0  0  0  0
    2.1861   62.2231   73.5013 H   0  0  0  0  0  0  0  0  0  0  0  0
   -1.3687   63.8932   72.7134 H   0  0  0  0  0  0  0  0  0  0  0  0
    1.1237   60.8246   71.0471 H   0  0  0  0  0  0  0  0  0  0  0  0
    5.6477   60.2282   71.2011 H   0  0  0  0  0  0  0  0  0  0  0  0
    5.4567   59.2797   69.6877 H   0  0  0  0  0  0  0  0  0  0  0  0
    5.1309   61.0462   69.6877 H   0  0  0  0  0  0  0  0  0  0  0  0
    4.1731   58.5635   72.2234 H   0  0  0  0  0  0  0  0  0  0  0  0
    1.3086   58.2482   71.1591 H   0  0  0  0  0  0  0  0  0  0  0  0
    2.0024   57.5386   72.6739 H   0  0  0  0  0  0  0  0  0  0  0  0
    2.2642   59.7935   73.6508 H   0  0  0  0  0  0  0  0  0  0  0  0
    0.2155   59.4950   74.4019 H   0  0  0  0  0  0  0  0  0  0  0  0
   -0.4247   60.3260   72.9437 H   0  0  0  0  0  0  0  0  0  0  0  0
   -0.2213   58.5413   72.9437 H   0  0  0  0  0  0  0  0  0  0  0  0
    3.9911   56.4383   71.2445 H   0  0  0  0  0  0  0  0  0  0  0  0
    2.9055   57.0256   69.9394 H   0  0  0  0  0  0  0  0  0  0  0  0
    4.6415   57.4872   69.9394 H   0  0  0  0  0  0  0  0  0  0  0  0
    1.9109   59.8618   69.5823 H   0  0  0  0  0  0  0  0  0  0  0  0
    1.9059   66.8823   67.7970 H   0  0  0  0  0  0  0  0  0  0  0  0
    2.4344   66.8740   70.1445 H   0  0  0  0  0  0  0  0  0  0  0  0
    1.0085   67.9285   70.5103 H   0  0  0  0  0  0  0  0  0  0  0  0
    0.8726   65.0635   69.4175 H   0  0  0  0  0  0  0  0  0  0  0  0
   -0.4760   65.7052   67.6617 H   0  0  0  0  0  0  0  0  0  0  0  0
   -0.4732   68.6816   68.3856 H   0  0  0  0  0  0  0  0  0  0  0  0
   -2.9477   66.7987   68.8822 H   0  0  0  0  0  0  0  0  0  0  0  0
   -2.5050   67.6454   67.3611 H   0  0  0  0  0  0  0  0  0  0  0  0
   -2.7443   65.8652   67.3611 H   0  0  0  0  0  0  0  0  0  0  0  0
    3.7439   69.4580   67.3143 H   0  0  0  0  0  0  0  0  0  0  0  0
    2.7427   68.1858   66.5361 H   0  0  0  0  0  0  0  0  0  0  0  0
    2.1845   69.8932   66.5361 H   0  0  0  0  0  0  0  0  0  0  0  0
   -1.2189   69.6201   66.9063 H   0  0  0  0  0  0  0  0  0  0  0  0
   -0.2024   69.6990   65.4273 H   0  0  0  0  0  0  0  0  0  0  0  0
   -1.7144   68.7291   65.4273 H   0  0  0  0  0  0  0  0  0  0  0  0
  1  2  1  6
  3  1  1  0
  4  3  1  0
  5  4  1  0
  6  1  1  0
  6  5  1  0
  7  5  1  0
  7  8  1  1
  9  7  1  0
 10  9  1  0
 11 10  1  0
 11 12  1  6
 12  7  1  0
 13 11  1  0
 14 13  1  0
 15 14  1  0
 16 15  1  0
 17 11  1  0
 17 16  1  0
 18 15  1  0
 19 16  1  0
 20 19  1  0
 21 19  1  0
 22 21  1  0
 23 22  1  0
 24 23  1  0
 25 24  1  0
 26 21  1  0
 26 25  1  0
 27 24  1  0
 28 25  1  0
 29 28  1  0
 30 26  1  0
 31 30  1  0
 23 32  1  6
 33 23  1  0
 34 33  1  0
 35 34  2  0
 36 34  1  0
 37 14  1  0
 39 38  1  0
 40 39  1  0
 41 40  1  0
 42  1  1  0
 42 41  1  0
 42 38  1  0
 43 40  1  0
 44 43  1  0
 45 44  1  0
 46 45  1  0
 47 45  1  0
 48 47  1  0
 49 48  1  0
 49 43  1  0
 50 49  1  0
 51 47  1  0
 45 52  1  6
 53 38  1  0
 55 54  1  0
 56 55  1  0
 56 53  1  0
 57 56  1  0
 58 57  1  0
 59 58  1  0
 59 54  1  0
 60 58  1  0
 62 61  1  0
 62 54  1  0
 63 59  1  0
 64 63  1  0
  2 65  1  0
  2 66  1  0
  2 67  1  0
  3 68  1  0
  3 69  1  0
  4 70  1  0
  4 71  1  0
  5 72  1  1
  8 73  1  0
  8 74  1  0
  8 75  1  0
  9 76  1  0
  9 77  1  0
 10 78  1  0
 10 79  1  0
 13 80  1  0
 13 81  1  0
 14 82  1  1
 15 83  1  6
 16 84  1  6
 18 85  1  0
 18 86  1  0
 18 87  1  0
 19 88  1  1
 20 89  1  0
 20 90  1  0
 20 91  1  0
 21 92  1  6
 24 93  1  1
 25 94  1  6
 26 95  1  1
 27 96  1  0
 27 97  1  0
 27 98  1  0
 29 99  1  0
 29100  1  0
 29101  1  0
 31102  1  0
 31103  1  0
 31104  1  0
 32105  1  0
 33106  1  0
 33107  1  0
 37108  1  0
 38109  1  6
 39110  1  0
 39111  1  0
 40112  1  1
 42113  1  6
 43114  1  6
 46115  1  0
 46116  1  0
 46117  1  0
 47118  1  1
 48119  1  0
 48120  1  0
 49121  1  1
 50122  1  0
 50123  1  0
 50124  1  0
 51125  1  0
 51126  1  0
 51127  1  0
 52128  1  0
 54129  1  6
 55130  1  0
 55131  1  0
 56132  1  6
 58133  1  6
 59134  1  1
 60135  1  0
 60136  1  0
 60137  1  0
 61138  1  0
 61139  1  0
 61140  1  0
 64141  1  0
 64142  1  0
 64143  1  0
M  CHG  1  36  -1
M  END
>  <score>  (6) 
-7.154

$$$$
=
     RDKit          3D

143149  0  0  0  0  0  0  0  0999 V2000
    2.8100   61.6030   71.7440 C   0  0  1  0  0  0  0  0  0  0  0  0
    2.1480   60.3490   71.1270 C   0  0  0  0  0  0  0  0  0  0  0  0
    3.9670   62.0700   70.8680 C   0  0  0  0  0  0  0  0  0  0  0  0
    3.2940   62.8480   69.7550 C   0  0  0  0  0  0  0  0  0  0  0  0
    1.9380   63.2620   70.3300 C   0  0  1  0  0  0  0  0  0  0  0  0
    1.8670   62.6890   71.6570 O   0  0  0  0  0  0  0  0  0  0  0  0
    1.6550   64.7840   70.3470 C   0  0  2  0  0  0  0  0  0  0  0  0
    2.9510   65.5700   70.6130 C   0  0  0  0  0  0  0  0  0  0  0  0
    0.5330   65.1880   71.2970 C   0  0  0  0  0  0  0  0  0  0  0  0
    0.0070   66.4590   70.6770 C   0  0  0  0  0  0  0  0  0  0  0  0
    0.2320   66.2480   69.1760 C   0  0  1  0  0  0  0  0  0  0  0  0
    1.1860   65.1820   69.0410 O   0  0  0  0  0  0  0  0  0  0  0  0
   -1.0490   65.8520   68.4330 C   0  0  0  0  0  0  0  0  0  0  0  0
   -1.7420   67.1000   67.9120 C   0  0  1  0  0  0  0  0  0  0  0  0
   -0.8240   67.9130   66.9650 C   0  0  2  0  0  0  0  0  0  0  0  0
    0.6700   67.5780   67.2390 C   0  0  2  0  0  0  0  0  0  0  0  0
    0.7840   67.4690   68.6690 O   0  0  0  0  0  0  0  0  0  0  0  0
   -1.1770   69.3980   67.1290 C   0  0  0  0  0  0  0  0  0  0  0  0
    1.7330   68.5790   66.6980 C   0  0  1  0  0  0  0  0  0  0  0  0
    2.8250   68.8420   67.7640 C   0  0  0  0  0  0  0  0  0  0  0  0
    2.4420   68.1340   65.3750 C   0  0  2  0  0  0  0  0  0  0  0  0
    3.8470   67.9550   65.6020 O   0  0  0  0  0  0  0  0  0  0  0  0
    4.7630   68.9620   65.1460 C   0  0  2  0  0  0  0  0  0  0  0  0
    4.5940   69.2180   63.6190 C   0  0  2  0  0  0  0  0  0  0  0  0
    3.2830   68.6080   63.0770 C   0  0  1  0  0  0  0  0  0  0  0  0
    2.1310   68.8990   64.0680 C   0  0  1  0  0  0  0  0  0  0  0  0
    5.7960   68.7540   62.7810 C   0  0  0  0  0  0  0  0  0  0  0  0
    3.0080   69.1980   61.7900 O   0  0  0  0  0  0  0  0  0  0  0  0
    3.4230   68.3660   60.7110 C   0  0  0  0  0  0  0  0  0  0  0  0
    0.8540   68.4250   63.5930 O   0  0  0  0  0  0  0  0  0  0  0  0
    0.0380   69.4230   62.9940 C   0  0  0  0  0  0  0  0  0  0  0  0
    6.0510   68.4000   65.4170 O   0  0  0  0  0  0  0  0  0  0  0  0
    4.5820   70.2260   65.9900 C   0  0  0  0  0  0  0  0  0  0  0  0
    5.8380   70.6090   66.7520 C   0  0  0  0  0  0  0  0  0  0  0  0
    5.9100   70.1410   67.9260 O   0  0  0  0  0  0  0  0  0  0  0  0
    6.6460   71.3430   66.1220 O   0  0  0  0  0  1  0  0  0  0  0  0
   -2.9390   66.7160   67.2300 O   0  0  0  0  0  0  0  0  0  0  0  0
    2.2600   61.6070   74.3670 C   0  0  1  0  0  0  0  0  0  0  0  0
    1.2980   60.4390   74.3490 C   0  0  0  0  0  0  0  0  0  0  0  0
    2.1290   59.2850   73.7820 C   0  0  1  0  0  0  0  0  0  0  0  0
    3.4020   59.8510   73.3890 O   0  0  0  0  0  0  0  0  0  0  0  0
    3.2160   61.2830   73.2180 C   0  0  1  0  0  0  0  0  0  0  0  0
    2.3500   58.1150   74.7660 C   0  0  1  0  0  0  0  0  0  0  0  0
    2.7180   58.6620   76.0370 O   0  0  0  0  0  0  0  0  0  0  0  0
    3.0800   57.7080   77.0310 C   0  0  1  0  0  0  0  0  0  0  0  0
    3.4370   58.5240   78.2750 C   0  0  0  0  0  0  0  0  0  0  0  0
    1.9030   56.7440   77.3030 C   0  0  1  0  0  0  0  0  0  0  0  0
    1.3840   56.1330   75.9930 C   0  0  0  0  0  0  0  0  0  0  0  0
    1.1000   57.2190   74.9430 C   0  0  2  0  0  0  0  0  0  0  0  0
    0.6120   56.5630   73.6530 C   0  0  0  0  0  0  0  0  0  0  0  0
    2.2410   55.6270   78.2940 C   0  0  0  0  0  0  0  0  0  0  0  0
    4.2700   57.0270   76.6480 O   0  0  0  0  0  0  0  0  0  0  0  0
    1.5710   62.8420   74.3080 O   0  0  0  0  0  0  0  0  0  0  0  0
   -1.4220   64.4150   75.9050 C   0  0  1  0  0  0  0  0  0  0  0  0
   -0.1690   64.2740   75.0430 C   0  0  0  0  0  0  0  0  0  0  0  0
    0.3970   62.8650   75.1150 C   0  0  2  0  0  0  0  0  0  0  0  0
    0.7020   62.5450   76.4660 O   0  0  0  0  0  0  0  0  0  0  0  0
   -0.4700   62.5110   77.2820 C   0  0  2  0  0  0  0  0  0  0  0  0
   -1.1700   63.8850   77.3380 C   0  0  2  0  0  0  0  0  0  0  0  0
   -0.0350   62.0490   78.6710 C   0  0  0  0  0  0  0  0  0  0  0  0
   -3.1970   66.0240   75.9100 C   0  0  0  0  0  0  0  0  0  0  0  0
   -1.7940   65.8040   75.9830 O   0  0  0  0  0  0  0  0  0  0  0  0
   -2.3960   63.6970   78.0700 O   0  0  0  0  0  0  0  0  0  0  0  0
   -2.5280   64.5430   79.2050 C   0  0  0  0  0  0  0  0  0  0  0  0
    1.7979   59.6858   71.9317 H   0  0  0  0  0  0  0  0  0  0  0  0
    1.2934   60.6539   70.5052 H   0  0  0  0  0  0  0  0  0  0  0  0
    2.8819   59.8153   70.5052 H   0  0  0  0  0  0  0  0  0  0  0  0
    4.6524   62.7154   71.4370 H   0  0  0  0  0  0  0  0  0  0  0  0
    4.5769   61.2353   70.4920 H   0  0  0  0  0  0  0  0  0  0  0  0
    3.8882   63.7343   69.4879 H   0  0  0  0  0  0  0  0  0  0  0  0
    3.1902   62.2518   68.8364 H   0  0  0  0  0  0  0  0  0  0  0  0
    1.1494   62.8806   69.6647 H   0  0  0  0  0  0  0  0  0  0  0  0
    3.1065   65.6643   71.6979 H   0  0  0  0  0  0  0  0  0  0  0  0
    3.8022   65.0358   70.1656 H   0  0  0  0  0  0  0  0  0  0  0  0
    2.8707   66.5717   70.1656 H   0  0  0  0  0  0  0  0  0  0  0  0
   -0.2484   64.4149   71.3379 H   0  0  0  0  0  0  0  0  0  0  0  0
    0.8698   65.3187   72.3360 H   0  0  0  0  0  0  0  0  0  0  0  0
   -1.0622   66.5910   70.8991 H   0  0  0  0  0  0  0  0  0  0  0  0
    0.5065   67.3605   71.0614 H   0  0  0  0  0  0  0  0  0  0  0  0
   -0.7942   65.1950   67.5883 H   0  0  0  0  0  0  0  0  0  0  0  0
   -1.7220   65.3210   69.1222 H   0  0  0  0  0  0  0  0  0  0  0  0
   -1.9847   67.7482   68.7669 H   0  0  0  0  0  0  0  0  0  0  0  0
   -0.9868   67.6451   65.9106 H   0  0  0  0  0  0  0  0  0  0  0  0
    0.9038   66.6568   66.6852 H   0  0  0  0  0  0  0  0  0  0  0  0
   -1.2357   69.6449   68.1993 H   0  0  0  0  0  0  0  0  0  0  0  0
   -0.4003   70.0143   66.6526 H   0  0  0  0  0  0  0  0  0  0  0  0
   -2.1479   69.5989   66.6526 H   0  0  0  0  0  0  0  0  0  0  0  0
    1.1610   69.4901   66.4685 H   0  0  0  0  0  0  0  0  0  0  0  0
    2.3895   68.7371   68.7687 H   0  0  0  0  0  0  0  0  0  0  0  0
    3.6409   68.1147   67.6403 H   0  0  0  0  0  0  0  0  0  0  0  0
    3.2203   69.8610   67.6403 H   0  0  0  0  0  0  0  0  0  0  0  0
    1.9631   67.1713   65.1427 H   0  0  0  0  0  0  0  0  0  0  0  0
    4.5412   70.3115   63.5121 H   0  0  0  0  0  0  0  0  0  0  0  0
    3.3778   67.5175   62.9680 H   0  0  0  0  0  0  0  0  0  0  0  0
    2.0658   69.9889   64.2020 H   0  0  0  0  0  0  0  0  0  0  0  0
    6.6103   68.4397   63.4505 H   0  0  0  0  0  0  0  0  0  0  0  0
    5.4956   67.9072   62.1464 H   0  0  0  0  0  0  0  0  0  0  0  0
    6.1424   69.5830   62.1464 H   0  0  0  0  0  0  0  0  0  0  0  0
    3.8805   67.4488   61.1102 H   0  0  0  0  0  0  0  0  0  0  0  0
    2.5508   68.1024   60.0947 H   0  0  0  0  0  0  0  0  0  0  0  0
    4.1582   68.9042   60.0947 H   0  0  0  0  0  0  0  0  0  0  0  0
   -0.4491   70.0187   63.7800 H   0  0  0  0  0  0  0  0  0  0  0  0
    0.6611   70.0798   62.3692 H   0  0  0  0  0  0  0  0  0  0  0  0
   -0.7295   68.9428   62.3692 H   0  0  0  0  0  0  0  0  0  0  0  0
    6.1860   68.3411   66.3960 H   0  0  0  0  0  0  0  0  0  0  0  0
    4.3078   71.0573   65.3238 H   0  0  0  0  0  0  0  0  0  0  0  0
    3.7950   70.0201   66.7305 H   0  0  0  0  0  0  0  0  0  0  0  0
   -3.6390   66.4914   67.8931 H   0  0  0  0  0  0  0  0  0  0  0  0
    2.8343   61.7353   75.2963 H   0  0  0  0  0  0  0  0  0  0  0  0
    0.9467   60.2058   75.3650 H   0  0  0  0  0  0  0  0  0  0  0  0
    0.3949   60.6428   73.7550 H   0  0  0  0  0  0  0  0  0  0  0  0
    1.5794   58.8412   72.9388 H   0  0  0  0  0  0  0  0  0  0  0  0
    4.0931   61.9411   73.3046 H   0  0  0  0  0  0  0  0  0  0  0  0
    3.1416   57.4749   74.3493 H   0  0  0  0  0  0  0  0  0  0  0  0
    3.1846   57.9470   79.1769 H   0  0  0  0  0  0  0  0  0  0  0  0
    4.5144   58.7458   78.2713 H   0  0  0  0  0  0  0  0  0  0  0  0
    2.8687   59.4658   78.2713 H   0  0  0  0  0  0  0  0  0  0  0  0
    1.1176   57.3579   77.7682 H   0  0  0  0  0  0  0  0  0  0  0  0
    2.1410   55.4405   75.5962 H   0  0  0  0  0  0  0  0  0  0  0  0
    0.4442   55.6026   76.2062 H   0  0  0  0  0  0  0  0  0  0  0  0
    0.2923   57.8882   75.2742 H   0  0  0  0  0  0  0  0  0  0  0  0
   -0.0280   55.7027   73.8985 H   0  0  0  0  0  0  0  0  0  0  0  0
    0.0356   57.2930   73.0657 H   0  0  0  0  0  0  0  0  0  0  0  0
    1.4769   56.2209   73.0657 H   0  0  0  0  0  0  0  0  0  0  0  0
    2.1275   56.0020   79.3219 H   0  0  0  0  0  0  0  0  0  0  0  0
    1.5595   54.7781   78.1361 H   0  0  0  0  0  0  0  0  0  0  0  0
    3.2788   55.2984   78.1361 H   0  0  0  0  0  0  0  0  0  0  0  0
    4.7638   56.7444   77.4582 H   0  0  0  0  0  0  0  0  0  0  0  0
   -2.2279   63.8257   75.4433 H   0  0  0  0  0  0  0  0  0  0  0  0
   -0.4254   64.5039   73.9983 H   0  0  0  0  0  0  0  0  0  0  0  0
    0.5919   64.9729   75.4206 H   0  0  0  0  0  0  0  0  0  0  0  0
   -0.3260   62.1209   74.7496 H   0  0  0  0  0  0  0  0  0  0  0  0
   -1.2097   61.8167   76.8568 H   0  0  0  0  0  0  0  0  0  0  0  0
   -0.5474   64.6391   77.8418 H   0  0  0  0  0  0  0  0  0  0  0  0
   -0.5772   62.6249   79.4355 H   0  0  0  0  0  0  0  0  0  0  0  0
   -0.2611   60.9790   78.7890 H   0  0  0  0  0  0  0  0  0  0  0  0
    1.0467   62.2104   78.7890 H   0  0  0  0  0  0  0  0  0  0  0  0
   -3.6114   66.0890   76.9269 H   0  0  0  0  0  0  0  0  0  0  0  0
   -3.3933   66.9639   75.3733 H   0  0  0  0  0  0  0  0  0  0  0  0
   -3.6716   65.1893   75.3733 H   0  0  0  0  0  0  0  0  0  0  0  0
   -2.4344   63.9432   80.1223 H   0  0  0  0  0  0  0  0  0  0  0  0
   -1.7385   65.3087   79.1854 H   0  0  0  0  0  0  0  0  0  0  0  0
   -3.5133   65.0317   79.1854 H   0  0  0  0  0  0  0  0  0  0  0  0
  1  2  1  6
  3  1  1  0
  4  3  1  0
  5  4  1  0
  6  1  1  0
  6  5  1  0
  7  5  1  0
  7  8  1  1
  9  7  1  0
 10  9  1  0
 11 10  1  0
 11 12  1  1
 12  7  1  0
 13 11  1  0
 14 13  1  0
 15 14  1  0
 16 15  1  0
 17 11  1  0
 17 16  1  0
 18 15  1  0
 19 16  1  0
 20 19  1  0
 21 19  1  0
 22 21  1  0
 23 22  1  0
 24 23  1  0
 25 24  1  0
 26 21  1  0
 26 25  1  0
 27 24  1  0
 28 25  1  0
 29 28  1  0
 30 26  1  0
 31 30  1  0
 23 32  1  6
 33 23  1  0
 34 33  1  0
 35 34  2  0
 36 34  1  0
 37 14  1  0
 39 38  1  0
 40 39  1  0
 41 40  1  0
 42  1  1  0
 42 41  1  0
 42 38  1  0
 43 40  1  0
 44 43  1  0
 45 44  1  0
 46 45  1  0
 47 45  1  0
 48 47  1  0
 49 48  1  0
 49 43  1  0
 50 49  1  0
 51 47  1  0
 45 52  1  6
 53 38  1  0
 55 54  1  0
 56 55  1  0
 56 53  1  0
 57 56  1  0
 58 57  1  0
 59 58  1  0
 59 54  1  0
 60 58  1  0
 62 61  1  0
 62 54  1  0
 63 59  1  0
 64 63  1  0
  2 65  1  0
  2 66  1  0
  2 67  1  0
  3 68  1  0
  3 69  1  0
  4 70  1  0
  4 71  1  0
  5 72  1  6
  8 73  1  0
  8 74  1  0
  8 75  1  0
  9 76  1  0
  9 77  1  0
 10 78  1  0
 10 79  1  0
 13 80  1  0
 13 81  1  0
 14 82  1  1
 15 83  1  6
 16 84  1  6
 18 85  1  0
 18 86  1  0
 18 87  1  0
 19 88  1  6
 20 89  1  0
 20 90  1  0
 20 91  1  0
 21 92  1  6
 24 93  1  1
 25 94  1  6
 26 95  1  1
 27 96  1  0
 27 97  1  0
 27 98  1  0
 29 99  1  0
 29100  1  0
 29101  1  0
 31102  1  0
 31103  1  0
 31104  1  0
 32105  1  0
 33106  1  0
 33107  1  0
 37108  1  0
 38109  1  1
 39110  1  0
 39111  1  0
 40112  1  6
 42113  1  1
 43114  1  6
 46115  1  0
 46116  1  0
 46117  1  0
 47118  1  1
 48119  1  0
 48120  1  0
 49121  1  1
 50122  1  0
 50123  1  0
 50124  1  0
 51125  1  0
 51126  1  0
 51127  1  0
 52128  1  0
 54129  1  6
 55130  1  0
 55131  1  0
 56132  1  6
 58133  1  6
 59134  1  1
 60135  1  0
 60136  1  0
 60137  1  0
 61138  1  0
 61139  1  0
 61140  1  0
 64141  1  0
 64142  1  0
 64143  1  0
M  CHG  1  36  -1
M  END
>  <score>  (7) 
-7.086

$$$$
=
     RDKit          3D

143149  0  0  0  0  0  0  0  0999 V2000
    1.8470   59.7580   76.7120 C   0  0  1  0  0  0  0  0  0  0  0  0
    3.3380   59.4310   76.9550 C   0  0  0  0  0  0  0  0  0  0  0  0
    0.9670   58.8850   77.6000 C   0  0  0  0  0  0  0  0  0  0  0  0
    1.0030   59.5770   78.9480 C   0  0  0  0  0  0  0  0  0  0  0  0
    1.3870   61.0240   78.6350 C   0  0  1  0  0  0  0  0  0  0  0  0
    1.5990   61.0890   77.2040 O   0  0  0  0  0  0  0  0  0  0  0  0
    0.3840   62.1020   79.1140 C   0  0  2  0  0  0  0  0  0  0  0  0
    0.7760   63.4850   78.5640 C   0  0  0  0  0  0  0  0  0  0  0  0
    0.1800   62.1210   80.6240 C   0  0  0  0  0  0  0  0  0  0  0  0
   -1.2130   62.6840   80.7700 C   0  0  0  0  0  0  0  0  0  0  0  0
   -1.9340   62.1910   79.5110 C   0  0  1  0  0  0  0  0  0  0  0  0
   -0.9190   61.7930   78.5750 O   0  0  0  0  0  0  0  0  0  0  0  0
   -2.8450   60.9880   79.7820 C   0  0  0  0  0  0  0  0  0  0  0  0
   -4.2480   61.4730   80.1070 C   0  0  1  0  0  0  0  0  0  0  0  0
   -4.8410   62.3250   78.9570 C   0  0  2  0  0  0  0  0  0  0  0  0
   -3.7020   62.9150   78.0760 C   0  0  2  0  0  0  0  0  0  0  0  0
   -2.6680   63.3070   78.9960 O   0  0  0  0  0  0  0  0  0  0  0  0
   -5.7650   63.3790   79.5810 C   0  0  0  0  0  0  0  0  0  0  0  0
   -4.0690   64.1110   77.1490 C   0  0  1  0  0  0  0  0  0  0  0  0
   -2.7990   64.9090   76.7630 C   0  0  0  0  0  0  0  0  0  0  0  0
   -4.8160   63.7170   75.8310 C   0  0  2  0  0  0  0  0  0  0  0  0
   -5.2000   64.8970   75.1090 O   0  0  0  0  0  0  0  0  0  0  0  0
   -6.5680   65.3250   75.1470 C   0  0  2  0  0  0  0  0  0  0  0  0
   -7.5210   64.1890   74.6700 C   0  0  2  0  0  0  0  0  0  0  0  0
   -6.8060   62.8210   74.6270 C   0  0  1  0  0  0  0  0  0  0  0  0
   -5.9360   62.6550   75.8970 C   0  0  1  0  0  0  0  0  0  0  0  0
   -8.2070   64.4850   73.3270 C   0  0  0  0  0  0  0  0  0  0  0  0
   -7.8090   61.7870   74.5600 O   0  0  0  0  0  0  0  0  0  0  0  0
   -7.7400   61.0410   73.3490 C   0  0  0  0  0  0  0  0  0  0  0  0
   -5.2930   61.3650   75.9670 O   0  0  0  0  0  0  0  0  0  0  0  0
   -4.4180   61.0810   74.8850 C   0  0  0  0  0  0  0  0  0  0  0  0
   -6.6080   66.4240   74.2310 O   0  0  0  0  0  0  0  0  0  0  0  0
   -6.8980   65.8340   76.5520 C   0  0  0  0  0  0  0  0  0  0  0  0
   -8.3900   65.8720   76.8300 C   0  0  0  0  0  0  0  0  0  0  0  0
   -9.0450   66.6750   76.1030 O   0  0  0  0  0  0  0  0  0  0  0  0
   -8.7860   65.1010   77.7460 O   0  0  0  0  0  1  0  0  0  0  0  0
   -5.0830   60.3420   80.3660 O   0  0  0  0  0  0  0  0  0  0  0  0
    0.2620   60.2150   74.5980 C   0  0  1  0  0  0  0  0  0  0  0  0
    0.6120   61.6770   74.4270 C   0  0  0  0  0  0  0  0  0  0  0  0
    2.1270   61.6710   74.2120 C   0  0  1  0  0  0  0  0  0  0  0  0
    2.5650   60.3050   74.4070 O   0  0  0  0  0  0  0  0  0  0  0  0
    1.5450   59.6210   75.1850 C   0  0  1  0  0  0  0  0  0  0  0  0
    2.5760   62.1780   72.8230 C   0  0  1  0  0  0  0  0  0  0  0  0
    3.1970   61.0910   72.1290 O   0  0  0  0  0  0  0  0  0  0  0  0
    3.7820   61.4230   70.8740 C   0  0  1  0  0  0  0  0  0  0  0  0
    4.3810   60.1200   70.3400 C   0  0  0  0  0  0  0  0  0  0  0  0
    2.7100   61.9880   69.9140 C   0  0  1  0  0  0  0  0  0  0  0  0
    1.9330   63.1340   70.5790 C   0  0  0  0  0  0  0  0  0  0  0  0
    1.4110   62.7270   71.9660 C   0  0  2  0  0  0  0  0  0  0  0  0
    0.6700   63.9050   72.5950 C   0  0  0  0  0  0  0  0  0  0  0  0
    3.2730   62.4570   68.5710 C   0  0  0  0  0  0  0  0  0  0  0  0
    4.8750   62.3140   71.0610 O   0  0  0  0  0  0  0  0  0  0  0  0
   -0.9270   60.0540   75.3480 O   0  0  0  0  0  0  0  0  0  0  0  0
   -3.1040   57.1220   76.1540 C   0  0  1  0  0  0  0  0  0  0  0  0
   -2.3730   58.4510   76.3290 C   0  0  0  0  0  0  0  0  0  0  0  0
   -1.5940   58.8230   75.0780 C   0  0  2  0  0  0  0  0  0  0  0  0
   -0.6590   57.7930   74.7790 O   0  0  0  0  0  0  0  0  0  0  0  0
   -1.3090   56.5640   74.4540 C   0  0  2  0  0  0  0  0  0  0  0  0
   -2.1420   56.0250   75.6360 C   0  0  2  0  0  0  0  0  0  0  0  0
   -0.2190   55.5770   74.0440 C   0  0  0  0  0  0  0  0  0  0  0  0
   -5.0640   56.7530   77.4830 C   0  0  0  0  0  0  0  0  0  0  0  0
   -3.6440   56.7040   77.4220 O   0  0  0  0  0  0  0  0  0  0  0  0
   -2.8500   54.8670   75.1520 O   0  0  0  0  0  0  0  0  0  0  0  0
   -2.6780   53.7070   75.9550 C   0  0  0  0  0  0  0  0  0  0  0  0
    3.5324   59.3884   78.0368 H   0  0  0  0  0  0  0  0  0  0  0  0
    3.5789   58.4587   76.5005 H   0  0  0  0  0  0  0  0  0  0  0  0
    3.9637   60.2133   76.5005 H   0  0  0  0  0  0  0  0  0  0  0  0
   -0.0607   58.8419   77.2102 H   0  0  0  0  0  0  0  0  0  0  0  0
    1.3177   57.8436   77.6498 H   0  0  0  0  0  0  0  0  0  0  0  0
    0.0161   59.5341   79.4319 H   0  0  0  0  0  0  0  0  0  0  0  0
    1.7122   59.1000   79.6405 H   0  0  0  0  0  0  0  0  0  0  0  0
    2.2938   61.2711   79.2065 H   0  0  0  0  0  0  0  0  0  0  0  0
    0.9704   64.1710   79.4016 H   0  0  0  0  0  0  0  0  0  0  0  0
    1.6830   63.3913   77.9487 H   0  0  0  0  0  0  0  0  0  0  0  0
   -0.0452   63.8811   77.9487 H   0  0  0  0  0  0  0  0  0  0  0  0
    0.2427   61.1065   81.0444 H   0  0  0  0  0  0  0  0  0  0  0  0
    0.9430   62.7067   81.1577 H   0  0  0  0  0  0  0  0  0  0  0  0
   -1.6996   62.2980   81.6779 H   0  0  0  0  0  0  0  0  0  0  0  0
   -1.2234   63.7796   80.8674 H   0  0  0  0  0  0  0  0  0  0  0  0
   -2.8775   60.3453   78.8899 H   0  0  0  0  0  0  0  0  0  0  0  0
   -2.4500   60.4158   80.6344 H   0  0  0  0  0  0  0  0  0  0  0  0
   -4.1979   62.1169   80.9975 H   0  0  0  0  0  0  0  0  0  0  0  0
   -5.4458   61.7159   78.2691 H   0  0  0  0  0  0  0  0  0  0  0  0
   -3.4089   62.1358   77.3570 H   0  0  0  0  0  0  0  0  0  0  0  0
   -5.7078   63.3137   80.6776 H   0  0  0  0  0  0  0  0  0  0  0  0
   -5.4495   64.3815   79.2564 H   0  0  0  0  0  0  0  0  0  0  0  0
   -6.8002   63.1974   79.2564 H   0  0  0  0  0  0  0  0  0  0  0  0
   -4.7653   64.7183   77.7459 H   0  0  0  0  0  0  0  0  0  0  0  0
   -2.2795   65.2354   77.6760 H   0  0  0  0  0  0  0  0  0  0  0  0
   -2.1299   64.2687   76.1694 H   0  0  0  0  0  0  0  0  0  0  0  0
   -3.0856   65.7896   76.1694 H   0  0  0  0  0  0  0  0  0  0  0  0
   -4.0589   63.1495   75.2700 H   0  0  0  0  0  0  0  0  0  0  0  0
   -8.3188   64.1433   75.4259 H   0  0  0  0  0  0  0  0  0  0  0  0
   -6.1505   62.7532   73.7463 H   0  0  0  0  0  0  0  0  0  0  0  0
   -6.5914   62.7619   76.7740 H   0  0  0  0  0  0  0  0  0  0  0  0
   -9.2028   64.9147   73.5108 H   0  0  0  0  0  0  0  0  0  0  0  0
   -7.5988   65.2007   72.7545 H   0  0  0  0  0  0  0  0  0  0  0  0
   -8.3104   63.5514   72.7545 H   0  0  0  0  0  0  0  0  0  0  0  0
   -7.6410   59.9707   73.5828 H   0  0  0  0  0  0  0  0  0  0  0  0
   -8.6572   61.2053   72.7644 H   0  0  0  0  0  0  0  0  0  0  0  0
   -6.8685   61.3707   72.7644 H   0  0  0  0  0  0  0  0  0  0  0  0
   -3.4406   60.7638   75.2774 H   0  0  0  0  0  0  0  0  0  0  0  0
   -4.8451   60.2754   74.2698 H   0  0  0  0  0  0  0  0  0  0  0  0
   -4.2906   61.9839   74.2698 H   0  0  0  0  0  0  0  0  0  0  0  0
   -6.6390   67.2744   74.7370 H   0  0  0  0  0  0  0  0  0  0  0  0
   -6.4205   65.1697   77.2873 H   0  0  0  0  0  0  0  0  0  0  0  0
   -6.5213   66.8648   76.6272 H   0  0  0  0  0  0  0  0  0  0  0  0
   -5.1753   60.2170   81.3437 H   0  0  0  0  0  0  0  0  0  0  0  0
   -0.0024   59.6791   73.6745 H   0  0  0  0  0  0  0  0  0  0  0  0
    0.0948   62.1037   73.5550 H   0  0  0  0  0  0  0  0  0  0  0  0
    0.3087   62.2891   75.2892 H   0  0  0  0  0  0  0  0  0  0  0  0
    2.5821   62.3722   74.9270 H   0  0  0  0  0  0  0  0  0  0  0  0
    1.4792   58.5251   75.1171 H   0  0  0  0  0  0  0  0  0  0  0  0
    3.2723   63.0145   72.9828 H   0  0  0  0  0  0  0  0  0  0  0  0
    4.6757   59.4790   71.1840 H   0  0  0  0  0  0  0  0  0  0  0  0
    3.6329   59.5971   69.7261 H   0  0  0  0  0  0  0  0  0  0  0  0
    5.2650   60.3473   69.7261 H   0  0  0  0  0  0  0  0  0  0  0  0
    2.0318   61.1491   69.6990 H   0  0  0  0  0  0  0  0  0  0  0  0
    2.5995   64.0022   70.6881 H   0  0  0  0  0  0  0  0  0  0  0  0
    1.0701   63.3817   69.9434 H   0  0  0  0  0  0  0  0  0  0  0  0
    0.6806   61.9080   71.8898 H   0  0  0  0  0  0  0  0  0  0  0  0
    0.7195   63.8263   73.6911 H   0  0  0  0  0  0  0  0  0  0  0  0
    1.1386   64.8468   72.2735 H   0  0  0  0  0  0  0  0  0  0  0  0
   -0.3819   63.8904   72.2735 H   0  0  0  0  0  0  0  0  0  0  0  0
    4.1074   63.1521   68.7459 H   0  0  0  0  0  0  0  0  0  0  0  0
    3.6330   61.5880   68.0008 H   0  0  0  0  0  0  0  0  0  0  0  0
    2.4833   62.9681   68.0008 H   0  0  0  0  0  0  0  0  0  0  0  0
    5.0335   62.4432   72.0297 H   0  0  0  0  0  0  0  0  0  0  0  0
   -3.9104   57.2647   75.4195 H   0  0  0  0  0  0  0  0  0  0  0  0
   -3.1099   59.2400   76.5398 H   0  0  0  0  0  0  0  0  0  0  0  0
   -1.6623   58.3487   77.1624 H   0  0  0  0  0  0  0  0  0  0  0  0
   -2.2578   58.9372   74.2083 H   0  0  0  0  0  0  0  0  0  0  0  0
   -2.0232   56.7172   73.6315 H   0  0  0  0  0  0  0  0  0  0  0  0
   -1.5059   55.7428   76.4879 H   0  0  0  0  0  0  0  0  0  0  0  0
    0.2493   55.1530   74.9445 H   0  0  0  0  0  0  0  0  0  0  0  0
   -0.6633   54.7676   73.4460 H   0  0  0  0  0  0  0  0  0  0  0  0
    0.5424   56.0992   73.4460 H   0  0  0  0  0  0  0  0  0  0  0  0
   -5.3857   56.7641   78.5349 H   0  0  0  0  0  0  0  0  0  0  0  0
   -5.4214   57.6640   76.9807 H   0  0  0  0  0  0  0  0  0  0  0  0
   -5.4833   55.8688   76.9807 H   0  0  0  0  0  0  0  0  0  0  0  0
   -2.7196   53.9873   77.0179 H   0  0  0  0  0  0  0  0  0  0  0  0
   -3.4791   52.9862   75.7343 H   0  0  0  0  0  0  0  0  0  0  0  0
   -1.7022   53.2497   75.7343 H   0  0  0  0  0  0  0  0  0  0  0  0
  1  2  1  6
  3  1  1  0
  4  3  1  0
  5  4  1  0
  6  1  1  0
  6  5  1  0
  7  5  1  0
  7  8  1  6
  9  7  1  0
 10  9  1  0
 11 10  1  0
 11 12  1  6
 12  7  1  0
 13 11  1  0
 14 13  1  0
 15 14  1  0
 16 15  1  0
 17 11  1  0
 17 16  1  0
 18 15  1  0
 19 16  1  0
 20 19  1  0
 21 19  1  0
 22 21  1  0
 23 22  1  0
 24 23  1  0
 25 24  1  0
 26 21  1  0
 26 25  1  0
 27 24  1  0
 28 25  1  0
 29 28  1  0
 30 26  1  0
 31 30  1  0
 23 32  1  6
 33 23  1  0
 34 33  1  0
 35 34  2  0
 36 34  1  0
 37 14  1  0
 39 38  1  0
 40 39  1  0
 41 40  1  0
 42  1  1  0
 42 41  1  0
 42 38  1  0
 43 40  1  0
 44 43  1  0
 45 44  1  0
 46 45  1  0
 47 45  1  0
 48 47  1  0
 49 48  1  0
 49 43  1  0
 50 49  1  0
 51 47  1  0
 45 52  1  1
 53 38  1  0
 55 54  1  0
 56 55  1  0
 56 53  1  0
 57 56  1  0
 58 57  1  0
 59 58  1  0
 59 54  1  0
 60 58  1  0
 62 61  1  0
 62 54  1  0
 63 59  1  0
 64 63  1  0
  2 65  1  0
  2 66  1  0
  2 67  1  0
  3 68  1  0
  3 69  1  0
  4 70  1  0
  4 71  1  0
  5 72  1  1
  8 73  1  0
  8 74  1  0
  8 75  1  0
  9 76  1  0
  9 77  1  0
 10 78  1  0
 10 79  1  0
 13 80  1  0
 13 81  1  0
 14 82  1  1
 15 83  1  6
 16 84  1  6
 18 85  1  0
 18 86  1  0
 18 87  1  0
 19 88  1  1
 20 89  1  0
 20 90  1  0
 20 91  1  0
 21 92  1  6
 24 93  1  1
 25 94  1  6
 26 95  1  1
 27 96  1  0
 27 97  1  0
 27 98  1  0
 29 99  1  0
 29100  1  0
 29101  1  0
 31102  1  0
 31103  1  0
 31104  1  0
 32105  1  0
 33106  1  0
 33107  1  0
 37108  1  0
 38109  1  6
 39110  1  0
 39111  1  0
 40112  1  1
 42113  1  6
 43114  1  1
 46115  1  0
 46116  1  0
 46117  1  0
 47118  1  6
 48119  1  0
 48120  1  0
 49121  1  6
 50122  1  0
 50123  1  0
 50124  1  0
 51125  1  0
 51126  1  0
 51127  1  0
 52128  1  0
 54129  1  6
 55130  1  0
 55131  1  0
 56132  1  6
 58133  1  6
 59134  1  1
 60135  1  0
 60136  1  0
 60137  1  0
 61138  1  0
 61139  1  0
 61140  1  0
 64141  1  0
 64142  1  0
 64143  1  0
M  CHG  1  36  -1
M  END
>  <score>  (8) 
-7.016

$$$$
=
     RDKit          3D

143149  0  0  0  0  0  0  0  0999 V2000
   -0.0830   64.4830   73.7300 C   0  0  1  0  0  0  0  0  0  0  0  0
   -0.6950   65.8850   73.5040 C   0  0  0  0  0  0  0  0  0  0  0  0
    1.2090   64.5980   74.5320 C   0  0  0  0  0  0  0  0  0  0  0  0
    0.7400   64.7360   75.9670 C   0  0  0  0  0  0  0  0  0  0  0  0
   -0.6690   64.1390   75.9770 C   0  0  1  0  0  0  0  0  0  0  0  0
   -0.9580   63.7550   74.6120 O   0  0  0  0  0  0  0  0  0  0  0  0
   -0.8910   62.9660   76.9620 C   0  0  2  0  0  0  0  0  0  0  0  0
   -1.7020   63.4340   78.1840 C   0  0  0  0  0  0  0  0  0  0  0  0
    0.3940   62.2510   77.3650 C   0  0  0  0  0  0  0  0  0  0  0  0
   -0.0850   60.8610   77.7050 C   0  0  0  0  0  0  0  0  0  0  0  0
   -1.2800   60.6520   76.7690 C   0  0  1  0  0  0  0  0  0  0  0  0
   -1.6790   61.9510   76.3020 O   0  0  0  0  0  0  0  0  0  0  0  0
   -0.9360   59.7830   75.5540 C   0  0  0  0  0  0  0  0  0  0  0  0
   -1.2320   58.3260   75.8690 C   0  0  1  0  0  0  0  0  0  0  0  0
   -2.7170   58.1140   76.2560 C   0  0  2  0  0  0  0  0  0  0  0  0
   -3.3430   59.4470   76.7590 C   0  0  2  0  0  0  0  0  0  0  0  0
   -2.3230   60.0710   77.5590 O   0  0  0  0  0  0  0  0  0  0  0  0
   -2.7780   56.9650   77.2720 C   0  0  0  0  0  0  0  0  0  0  0  0
   -4.6670   59.3470   77.5730 C   0  0  1  0  0  0  0  0  0  0  0  0
   -4.3910   59.5350   79.0850 C   0  0  0  0  0  0  0  0  0  0  0  0
   -5.7770   60.3650   77.1490 C   0  0  2  0  0  0  0  0  0  0  0  0
   -7.0380   59.9890   77.7230 O   0  0  0  0  0  0  0  0  0  0  0  0
   -8.0230   59.3590   76.8910 C   0  0  2  0  0  0  0  0  0  0  0  0
   -8.3510   60.2400   75.6500 C   0  0  2  0  0  0  0  0  0  0  0  0
   -7.3040   61.3560   75.4460 C   0  0  1  0  0  0  0  0  0  0  0  0
   -5.8850   60.7780   75.6640 C   0  0  1  0  0  0  0  0  0  0  0  0
   -9.7720   60.8260   75.6690 C   0  0  0  0  0  0  0  0  0  0  0  0
   -7.4440   61.8700   74.1060 O   0  0  0  0  0  0  0  0  0  0  0  0
   -7.2970   60.8560   73.1170 C   0  0  0  0  0  0  0  0  0  0  0  0
   -4.8440   61.7450   75.4160 O   0  0  0  0  0  0  0  0  0  0  0  0
   -4.9280   62.9210   76.2090 C   0  0  0  0  0  0  0  0  0  0  0  0
   -9.1690   59.2520   77.7420 O   0  0  0  0  0  0  0  0  0  0  0  0
   -7.5440   57.9530   76.5200 C   0  0  0  0  0  0  0  0  0  0  0  0
   -8.3340   56.8590   77.2170 C   0  0  0  0  0  0  0  0  0  0  0  0
   -9.2410   56.3290   76.5100 O   0  0  0  0  0  0  0  0  0  0  0  0
   -7.9880   56.6190   78.4040 O   0  0  0  0  0  1  0  0  0  0  0  0
   -0.8990   57.5270   74.7310 O   0  0  0  0  0  0  0  0  0  0  0  0
    0.8650   64.4720   71.2230 C   0  0  1  0  0  0  0  0  0  0  0  0
    2.3070   64.1830   71.5790 C   0  0  0  0  0  0  0  0  0  0  0  0
    2.2400   62.8550   72.3370 C   0  0  1  0  0  0  0  0  0  0  0  0
    0.8350   62.5440   72.4970 O   0  0  0  0  0  0  0  0  0  0  0  0
    0.0880   63.7810   72.3450 C   0  0  1  0  0  0  0  0  0  0  0  0
    2.9670   61.6850   71.6380 C   0  0  1  0  0  0  0  0  0  0  0  0
    2.5240   60.4620   72.2360 O   0  0  0  0  0  0  0  0  0  0  0  0
    3.1920   59.2860   71.7890 C   0  0  1  0  0  0  0  0  0  0  0  0
    2.5610   58.1310   72.5690 C   0  0  0  0  0  0  0  0  0  0  0  0
    3.0060   59.1100   70.2650 C   0  0  1  0  0  0  0  0  0  0  0  0
    3.4000   60.3910   69.5150 C   0  0  0  0  0  0  0  0  0  0  0  0
    2.7070   61.6260   70.1130 C   0  0  2  0  0  0  0  0  0  0  0  0
    3.1490   62.8750   69.3530 C   0  0  0  0  0  0  0  0  0  0  0  0
    3.7720   57.9180   69.6860 C   0  0  0  0  0  0  0  0  0  0  0  0
    4.5620   59.3230   72.1740 O   0  0  0  0  0  0  0  0  0  0  0  0
    0.6460   65.8590   71.0430 O   0  0  0  0  0  0  0  0  0  0  0  0
    1.4910   68.0340   68.1220 C   0  0  1  0  0  0  0  0  0  0  0  0
    1.4660   67.5130   69.5570 C   0  0  0  0  0  0  0  0  0  0  0  0
    0.6320   66.2480   69.6730 C   0  0  2  0  0  0  0  0  0  0  0  0
   -0.6940   66.5130   69.2320 O   0  0  0  0  0  0  0  0  0  0  0  0
   -0.7360   66.8530   67.8460 C   0  0  2  0  0  0  0  0  0  0  0  0
    0.0560   68.1440   67.5480 C   0  0  2  0  0  0  0  0  0  0  0  0
   -2.2070   67.0020   67.4660 C   0  0  0  0  0  0  0  0  0  0  0  0
    3.2020   69.4380   67.2030 C   0  0  0  0  0  0  0  0  0  0  0  0
    2.1010   69.3390   68.0970 O   0  0  0  0  0  0  0  0  0  0  0  0
    0.0550   68.3120   66.1180 O   0  0  0  0  0  0  0  0  0  0  0  0
    0.9000   67.4020   65.4270 C   0  0  0  0  0  0  0  0  0  0  0  0
   -0.9008   66.3563   74.4764 H   0  0  0  0  0  0  0  0  0  0  0  0
    0.0133   66.5073   72.9374 H   0  0  0  0  0  0  0  0  0  0  0  0
   -1.6329   65.7887   72.9374 H   0  0  0  0  0  0  0  0  0  0  0  0
    1.8275   63.6969   74.4079 H   0  0  0  0  0  0  0  0  0  0  0  0
    1.8341   65.4432   74.2082 H   0  0  0  0  0  0  0  0  0  0  0  0
    1.4018   64.1786   76.6462 H   0  0  0  0  0  0  0  0  0  0  0  0
    0.7503   65.7816   76.3084 H   0  0  0  0  0  0  0  0  0  0  0  0
   -1.3653   64.9022   76.3547 H   0  0  0  0  0  0  0  0  0  0  0  0
   -1.1821   63.1340   79.1058 H   0  0  0  0  0  0  0  0  0  0  0  0
   -1.8028   64.5291   78.1597 H   0  0  0  0  0  0  0  0  0  0  0  0
   -2.7006   62.9733   78.1597 H   0  0  0  0  0  0  0  0  0  0  0  0
    1.1124   62.2292   76.5323 H   0  0  0  0  0  0  0  0  0  0  0  0
    0.9226   62.7430   78.1948 H   0  0  0  0  0  0  0  0  0  0  0  0
    0.7009   60.1164   77.5106 H   0  0  0  0  0  0  0  0  0  0  0  0
   -0.3492   60.7480   78.7668 H   0  0  0  0  0  0  0  0  0  0  0  0
   -1.5416   60.1017   74.6928 H   0  0  0  0  0  0  0  0  0  0  0  0
    0.1318   59.8954   75.3151 H   0  0  0  0  0  0  0  0  0  0  0  0
   -0.6227   58.0241   76.7336 H   0  0  0  0  0  0  0  0  0  0  0  0
   -3.3271   57.8248   75.3876 H   0  0  0  0  0  0  0  0  0  0  0  0
   -3.6499   60.0194   75.8712 H   0  0  0  0  0  0  0  0  0  0  0  0
   -2.7562   57.3760   78.2921 H   0  0  0  0  0  0  0  0  0  0  0  0
   -3.7076   56.3954   77.1260 H   0  0  0  0  0  0  0  0  0  0  0  0
   -1.9139   56.3002   77.1260 H   0  0  0  0  0  0  0  0  0  0  0  0
   -5.0511   58.3400   77.3528 H   0  0  0  0  0  0  0  0  0  0  0  0
   -5.1626   59.0094   79.6667 H   0  0  0  0  0  0  0  0  0  0  0  0
   -3.4015   59.1223   79.3312 H   0  0  0  0  0  0  0  0  0  0  0  0
   -4.4128   60.6069   79.3312 H   0  0  0  0  0  0  0  0  0  0  0  0
   -5.4252   61.3155   77.5766 H   0  0  0  0  0  0  0  0  0  0  0  0
   -8.3059   59.5562   74.7895 H   0  0  0  0  0  0  0  0  0  0  0  0
   -7.4599   62.1706   76.1685 H   0  0  0  0  0  0  0  0  0  0  0  0
   -5.7499   59.9399   74.9644 H   0  0  0  0  0  0  0  0  0  0  0  0
  -10.0991   60.9609   76.7105 H   0  0  0  0  0  0  0  0  0  0  0  0
   -9.7745   61.7985   75.1550 H   0  0  0  0  0  0  0  0  0  0  0  0
  -10.4593   60.1379   75.1550 H   0  0  0  0  0  0  0  0  0  0  0  0
   -7.1558   59.8821   73.6085 H   0  0  0  0  0  0  0  0  0  0  0  0
   -8.1997   60.8225   72.4893 H   0  0  0  0  0  0  0  0  0  0  0  0
   -6.4220   61.0802   72.4893 H   0  0  0  0  0  0  0  0  0  0  0  0
   -4.9084   62.6471   77.2742 H   0  0  0  0  0  0  0  0  0  0  0  0
   -4.0744   63.5771   75.9834 H   0  0  0  0  0  0  0  0  0  0  0  0
   -5.8662   63.4492   75.9834 H   0  0  0  0  0  0  0  0  0  0  0  0
   -8.8807   59.2789   78.6887 H   0  0  0  0  0  0  0  0  0  0  0  0
   -7.6467   57.8223   75.4326 H   0  0  0  0  0  0  0  0  0  0  0  0
   -6.4968   57.8635   76.8447 H   0  0  0  0  0  0  0  0  0  0  0  0
   -0.5364   56.6569   75.0334 H   0  0  0  0  0  0  0  0  0  0  0  0
    0.5295   64.0825   70.2505 H   0  0  0  0  0  0  0  0  0  0  0  0
    2.9220   64.0854   70.6722 H   0  0  0  0  0  0  0  0  0  0  0  0
    2.7669   64.9872   72.1721 H   0  0  0  0  0  0  0  0  0  0  0  0
    2.7630   62.9750   73.2973 H   0  0  0  0  0  0  0  0  0  0  0  0
   -0.9691   63.7233   72.0464 H   0  0  0  0  0  0  0  0  0  0  0  0
    4.0483   61.8389   71.7690 H   0  0  0  0  0  0  0  0  0  0  0  0
    2.6633   58.3182   73.6481 H   0  0  0  0  0  0  0  0  0  0  0  0
    1.4948   58.0528   72.3099 H   0  0  0  0  0  0  0  0  0  0  0  0
    3.0712   57.1916   72.3099 H   0  0  0  0  0  0  0  0  0  0  0  0
    1.9354   58.9035   70.1191 H   0  0  0  0  0  0  0  0  0  0  0  0
    4.4898   60.5244   69.5822 H   0  0  0  0  0  0  0  0  0  0  0  0
    3.0834   60.2898   68.4664 H   0  0  0  0  0  0  0  0  0  0  0  0
    1.6152   61.5629   69.9946 H   0  0  0  0  0  0  0  0  0  0  0  0
    3.4273   63.6613   70.0702 H   0  0  0  0  0  0  0  0  0  0  0  0
    4.0157   62.6320   68.7208 H   0  0  0  0  0  0  0  0  0  0  0  0
    2.3223   63.2312   68.7208 H   0  0  0  0  0  0  0  0  0  0  0  0
    4.1676   57.3024   70.5073 H   0  0  0  0  0  0  0  0  0  0  0  0
    3.0939   57.3119   69.0673 H   0  0  0  0  0  0  0  0  0  0  0  0
    4.6050   58.2830   69.0673 H   0  0  0  0  0  0  0  0  0  0  0  0
    4.6272   59.3248   73.1618 H   0  0  0  0  0  0  0  0  0  0  0  0
    2.0684   67.3271   67.5080 H   0  0  0  0  0  0  0  0  0  0  0  0
    2.4956   67.2934   69.8760 H   0  0  0  0  0  0  0  0  0  0  0  0
    1.0151   68.2850   70.1978 H   0  0  0  0  0  0  0  0  0  0  0  0
    1.0376   65.4386   69.0482 H   0  0  0  0  0  0  0  0  0  0  0  0
   -0.2585   66.0640   67.2464 H   0  0  0  0  0  0  0  0  0  0  0  0
   -0.4022   69.0226   68.0255 H   0  0  0  0  0  0  0  0  0  0  0  0
   -2.8172   67.0638   68.3792 H   0  0  0  0  0  0  0  0  0  0  0  0
   -2.3414   67.9184   66.8725 H   0  0  0  0  0  0  0  0  0  0  0  0
   -2.5224   66.1312   66.8725 H   0  0  0  0  0  0  0  0  0  0  0  0
    4.1355   69.5219   67.7788 H   0  0  0  0  0  0  0  0  0  0  0  0
    3.2416   68.5398   66.5692 H   0  0  0  0  0  0  0  0  0  0  0  0
    3.0808   70.3289   66.5692 H   0  0  0  0  0  0  0  0  0  0  0  0
    1.4611   66.7977   66.1550 H   0  0  0  0  0  0  0  0  0  0  0  0
    0.2883   66.7408   64.7956 H   0  0  0  0  0  0  0  0  0  0  0  0
    1.6046   67.9631   64.7956 H   0  0  0  0  0  0  0  0  0  0  0  0
  1  2  1  6
  3  1  1  0
  4  3  1  0
  5  4  1  0
  6  1  1  0
  6  5  1  0
  7  5  1  0
  7  8  1  1
  9  7  1  0
 10  9  1  0
 11 10  1  0
 11 12  1  6
 12  7  1  0
 13 11  1  0
 14 13  1  0
 15 14  1  0
 16 15  1  0
 17 11  1  0
 17 16  1  0
 18 15  1  0
 19 16  1  0
 20 19  1  0
 21 19  1  0
 22 21  1  0
 23 22  1  0
 24 23  1  0
 25 24  1  0
 26 21  1  0
 26 25  1  0
 27 24  1  0
 28 25  1  0
 29 28  1  0
 30 26  1  0
 31 30  1  0
 23 32  1  1
 33 23  1  0
 34 33  1  0
 35 34  2  0
 36 34  1  0
 37 14  1  0
 39 38  1  0
 40 39  1  0
 41 40  1  0
 42  1  1  0
 42 41  1  0
 42 38  1  0
 43 40  1  0
 44 43  1  0
 45 44  1  0
 46 45  1  0
 47 45  1  0
 48 47  1  0
 49 48  1  0
 49 43  1  0
 50 49  1  0
 51 47  1  0
 45 52  1  6
 53 38  1  0
 55 54  1  0
 56 55  1  0
 56 53  1  0
 57 56  1  0
 58 57  1  0
 59 58  1  0
 59 54  1  0
 60 58  1  0
 62 61  1  0
 62 54  1  0
 63 59  1  0
 64 63  1  0
  2 65  1  0
  2 66  1  0
  2 67  1  0
  3 68  1  0
  3 69  1  0
  4 70  1  0
  4 71  1  0
  5 72  1  1
  8 73  1  0
  8 74  1  0
  8 75  1  0
  9 76  1  0
  9 77  1  0
 10 78  1  0
 10 79  1  0
 13 80  1  0
 13 81  1  0
 14 82  1  1
 15 83  1  6
 16 84  1  6
 18 85  1  0
 18 86  1  0
 18 87  1  0
 19 88  1  1
 20 89  1  0
 20 90  1  0
 20 91  1  0
 21 92  1  1
 24 93  1  6
 25 94  1  1
 26 95  1  6
 27 96  1  0
 27 97  1  0
 27 98  1  0
 29 99  1  0
 29100  1  0
 29101  1  0
 31102  1  0
 31103  1  0
 31104  1  0
 32105  1  0
 33106  1  0
 33107  1  0
 37108  1  0
 38109  1  6
 39110  1  0
 39111  1  0
 40112  1  1
 42113  1  6
 43114  1  6
 46115  1  0
 46116  1  0
 46117  1  0
 47118  1  1
 48119  1  0
 48120  1  0
 49121  1  1
 50122  1  0
 50123  1  0
 50124  1  0
 51125  1  0
 51126  1  0
 51127  1  0
 52128  1  0
 54129  1  6
 55130  1  0
 55131  1  0
 56132  1  6
 58133  1  6
 59134  1  1
 60135  1  0
 60136  1  0
 60137  1  0
 61138  1  0
 61139  1  0
 61140  1  0
 64141  1  0
 64142  1  0
 64143  1  0
M  CHG  1  36  -1
M  END
>  <score>  (9) 
-6.793

$$$$
