=
     RDKit          3D

 49 50  0  0  0  0  0  0  0  0999 V2000
    1.2720   69.1410   67.6060 C   0  0  0  0  0  0  0  0  0  0  0  0
    0.3850   69.9410   67.8900 O   0  0  0  0  0  0  0  0  0  0  0  0
    1.0640   67.9780   66.9180 N   0  0  0  0  0  0  0  0  0  0  0  0
    5.2370   70.9890   68.1970 C   0  0  2  0  0  0  0  0  0  0  0  0
    4.3240   70.7330   69.4130 C   0  0  0  0  0  0  0  0  0  0  0  0
    2.8690   70.4960   69.0130 C   0  0  0  0  0  0  0  0  0  0  0  0
    2.7310   69.3430   68.0160 C   0  0  2  0  0  0  0  0  0  0  0  0
    3.6070   69.6090   66.7880 C   0  0  0  0  0  0  0  0  0  0  0  0
    5.0660   69.8530   67.1680 C   0  0  0  0  0  0  0  0  0  0  0  0
    7.0010   70.6270   70.0290 C   0  0  0  0  0  0  0  0  0  0  0  0
    6.7270   71.1670   68.6200 C   0  0  0  0  0  0  0  0  0  0  0  0
    7.6940   70.4840   67.6440 C   0  0  0  0  0  0  0  0  0  0  0  0
   -0.2010   67.5830   66.2490 C   0  0  1  0  0  0  0  0  0  0  0  0
   -1.3010   67.2880   67.3300 C   0  0  0  0  0  0  0  0  0  0  0  0
   -2.4160   67.8610   67.1940 O   0  0  0  0  0  0  0  0  0  0  0  0
   -0.9150   66.4770   68.2360 O   0  0  0  0  0  1  0  0  0  0  0  0
   -0.7040   68.6800   65.3000 C   0  0  0  0  0  0  0  0  0  0  0  0
    0.1210   68.8050   64.0360 C   0  0  0  0  0  0  0  0  0  0  0  0
    1.4650   68.4120   64.0210 C   0  0  0  0  0  0  0  0  0  0  0  0
    2.2280   68.5330   62.8590 C   0  0  0  0  0  0  0  0  0  0  0  0
    1.6550   69.0540   61.6990 C   0  0  0  0  0  0  0  0  0  0  0  0
    0.3220   69.4610   61.7050 C   0  0  0  0  0  0  0  0  0  0  0  0
   -0.4400   69.3400   62.8690 C   0  0  0  0  0  0  0  0  0  0  0  0
    1.8533   67.3189   66.8587 H   0  0  0  0  0  0  0  0  0  0  0  0
    4.9336   71.9354   67.7256 H   0  0  0  0  0  0  0  0  0  0  0  0
    4.6914   69.8456   69.9492 H   0  0  0  0  0  0  0  0  0  0  0  0
    4.3539   71.6307   70.0480 H   0  0  0  0  0  0  0  0  0  0  0  0
    2.2866   70.2575   69.9152 H   0  0  0  0  0  0  0  0  0  0  0  0
    2.4953   71.4108   68.5297 H   0  0  0  0  0  0  0  0  0  0  0  0
    3.0712   68.4174   68.5033 H   0  0  0  0  0  0  0  0  0  0  0  0
    3.5552   68.7372   66.1192 H   0  0  0  0  0  0  0  0  0  0  0  0
    3.2293   70.5147   66.2910 H   0  0  0  0  0  0  0  0  0  0  0  0
    5.4766   68.9268   67.5964 H   0  0  0  0  0  0  0  0  0  0  0  0
    5.5991   70.1531   66.2538 H   0  0  0  0  0  0  0  0  0  0  0  0
    6.6354   71.3476   70.7754 H   0  0  0  0  0  0  0  0  0  0  0  0
    6.4811   69.6666   70.1611 H   0  0  0  0  0  0  0  0  0  0  0  0
    8.0830   70.4794   70.1611 H   0  0  0  0  0  0  0  0  0  0  0  0
    6.9019   72.2529   68.6065 H   0  0  0  0  0  0  0  0  0  0  0  0
    8.4639   69.9402   68.2110 H   0  0  0  0  0  0  0  0  0  0  0  0
    7.1375   69.7775   67.0106 H   0  0  0  0  0  0  0  0  0  0  0  0
    8.1738   71.2447   67.0106 H   0  0  0  0  0  0  0  0  0  0  0  0
   -0.0003   66.6792   65.6550 H   0  0  0  0  0  0  0  0  0  0  0  0
   -1.7417   68.4484   65.0179 H   0  0  0  0  0  0  0  0  0  0  0  0
   -0.6234   69.6367   65.8369 H   0  0  0  0  0  0  0  0  0  0  0  0
    1.9236   68.0041   64.9339 H   0  0  0  0  0  0  0  0  0  0  0  0
    3.2817   68.2174   62.8578 H   0  0  0  0  0  0  0  0  0  0  0  0
    2.2542   69.1435   60.7809 H   0  0  0  0  0  0  0  0  0  0  0  0
   -0.1299   69.8776   60.7927 H   0  0  0  0  0  0  0  0  0  0  0  0
   -1.4901   69.6677   62.8696 H   0  0  0  0  0  0  0  0  0  0  0  0
  2  1  2  0
  3  1  1  0
  5  4  1  0
  6  5  1  0
  7  6  1  0
  7  1  1  0
  8  7  1  0
  9  8  1  0
  9  4  1  0
 11  4  1  0
 11 10  1  0
 12 11  1  0
 13  3  1  0
 14 13  1  0
 15 14  2  0
 16 14  1  0
 17 13  1  0
 18 17  1  0
 19 18  2  0
 20 19  1  0
 21 20  2  0
 22 21  1  0
 23 22  2  0
 23 18  1  0
  3 24  1  0
  4 25  1  6
  5 26  1  0
  5 27  1  0
  6 28  1  0
  6 29  1  0
  7 30  1  1
  8 31  1  0
  8 32  1  0
  9 33  1  0
  9 34  1  0
 10 35  1  0
 10 36  1  0
 10 37  1  0
 11 38  1  0
 12 39  1  0
 12 40  1  0
 12 41  1  0
 13 42  1  6
 17 43  1  0
 17 44  1  0
 19 45  1  0
 20 46  1  0
 21 47  1  0
 22 48  1  0
 23 49  1  0
M  CHG  1  16  -1
M  END
>  <score>  (1) 
-10.085

$$$$
=
     RDKit          3D

 49 50  0  0  0  0  0  0  0  0999 V2000
    0.5430   66.2850   69.5080 C   0  0  0  0  0  0  0  0  0  0  0  0
   -0.5590   66.8180   69.5970 O   0  0  0  0  0  0  0  0  0  0  0  0
    1.4640   66.5880   68.5440 N   0  0  0  0  0  0  0  0  0  0  0  0
    1.8920   62.3780   71.0570 C   0  0  2  0  0  0  0  0  0  0  0  0
    2.8780   63.5620   71.0050 C   0  0  0  0  0  0  0  0  0  0  0  0
    2.4040   64.6800   70.0790 C   0  0  0  0  0  0  0  0  0  0  0  0
    1.0120   65.1880   70.4630 C   0  0  2  0  0  0  0  0  0  0  0  0
    0.0180   64.0230   70.4800 C   0  0  0  0  0  0  0  0  0  0  0  0
    0.4780   62.8920   71.3980 C   0  0  0  0  0  0  0  0  0  0  0  0
    3.0910   61.8630   73.2690 C   0  0  0  0  0  0  0  0  0  0  0  0
    2.3620   61.2760   72.0540 C   0  0  0  0  0  0  0  0  0  0  0  0
    1.1990   60.4120   72.5580 C   0  0  0  0  0  0  0  0  0  0  0  0
    1.3720   67.7130   67.5800 C   0  0  1  0  0  0  0  0  0  0  0  0
   -0.0710   67.7610   66.9620 C   0  0  0  0  0  0  0  0  0  0  0  0
   -0.4370   66.7760   66.2650 O   0  0  0  0  0  0  0  0  0  0  0  0
   -0.7110   68.8250   67.2550 O   0  0  0  0  0  1  0  0  0  0  0  0
    1.6800   69.0580   68.2530 C   0  0  0  0  0  0  0  0  0  0  0  0
    3.0680   69.5800   67.9420 C   0  0  0  0  0  0  0  0  0  0  0  0
    3.7900   70.2990   68.9030 C   0  0  0  0  0  0  0  0  0  0  0  0
    5.0650   70.7870   68.6160 C   0  0  0  0  0  0  0  0  0  0  0  0
    5.6300   70.5660   67.3600 C   0  0  0  0  0  0  0  0  0  0  0  0
    4.9160   69.8640   66.3900 C   0  0  0  0  0  0  0  0  0  0  0  0
    3.6400   69.3760   66.6790 C   0  0  0  0  0  0  0  0  0  0  0  0
    2.2947   65.9824   68.4812 H   0  0  0  0  0  0  0  0  0  0  0  0
    1.8626   61.9049   70.0644 H   0  0  0  0  0  0  0  0  0  0  0  0
    2.9926   63.9700   72.0201 H   0  0  0  0  0  0  0  0  0  0  0  0
    3.8324   63.1839   70.6098 H   0  0  0  0  0  0  0  0  0  0  0  0
    3.1163   65.5162   70.1376 H   0  0  0  0  0  0  0  0  0  0  0  0
    2.3495   64.2761   69.0573 H   0  0  0  0  0  0  0  0  0  0  0  0
    1.0663   65.6249   71.4711 H   0  0  0  0  0  0  0  0  0  0  0  0
   -0.9563   64.3925   70.8324 H   0  0  0  0  0  0  0  0  0  0  0  0
   -0.0543   63.6230   69.4579 H   0  0  0  0  0  0  0  0  0  0  0  0
    0.4791   63.2600   72.4346 H   0  0  0  0  0  0  0  0  0  0  0  0
   -0.2196   62.0525   71.2618 H   0  0  0  0  0  0  0  0  0  0  0  0
    2.6254   61.4881   74.1924 H   0  0  0  0  0  0  0  0  0  0  0  0
    4.1485   61.5614   73.2430 H   0  0  0  0  0  0  0  0  0  0  0  0
    3.0220   62.9605   73.2430 H   0  0  0  0  0  0  0  0  0  0  0  0
    3.0592   60.6479   71.4801 H   0  0  0  0  0  0  0  0  0  0  0  0
    1.1945   60.4087   73.6580 H   0  0  0  0  0  0  0  0  0  0  0  0
    0.2486   60.8248   72.1887 H   0  0  0  0  0  0  0  0  0  0  0  0
    1.3199   59.3829   72.1887 H   0  0  0  0  0  0  0  0  0  0  0  0
    2.1186   67.5437   66.7901 H   0  0  0  0  0  0  0  0  0  0  0  0
    0.9432   69.7981   67.9075 H   0  0  0  0  0  0  0  0  0  0  0  0
    1.6283   68.8977   69.3400 H   0  0  0  0  0  0  0  0  0  0  0  0
    3.3474   70.4806   69.8935 H   0  0  0  0  0  0  0  0  0  0  0  0
    5.6248   71.3461   69.3802 H   0  0  0  0  0  0  0  0  0  0  0  0
    6.6378   70.9452   67.1351 H   0  0  0  0  0  0  0  0  0  0  0  0
    5.3578   69.6945   65.3970 H   0  0  0  0  0  0  0  0  0  0  0  0
    3.0789   68.8267   65.9086 H   0  0  0  0  0  0  0  0  0  0  0  0
  2  1  2  0
  3  1  1  0
  5  4  1  0
  6  5  1  0
  7  6  1  0
  7  1  1  0
  8  7  1  0
  9  8  1  0
  9  4  1  0
 11  4  1  0
 11 10  1  0
 12 11  1  0
 13  3  1  0
 14 13  1  0
 15 14  2  0
 16 14  1  0
 17 13  1  0
 18 17  1  0
 19 18  2  0
 20 19  1  0
 21 20  2  0
 22 21  1  0
 23 22  2  0
 23 18  1  0
  3 24  1  0
  4 25  1  6
  5 26  1  0
  5 27  1  0
  6 28  1  0
  6 29  1  0
  7 30  1  1
  8 31  1  0
  8 32  1  0
  9 33  1  0
  9 34  1  0
 10 35  1  0
 10 36  1  0
 10 37  1  0
 11 38  1  0
 12 39  1  0
 12 40  1  0
 12 41  1  0
 13 42  1  6
 17 43  1  0
 17 44  1  0
 19 45  1  0
 20 46  1  0
 21 47  1  0
 22 48  1  0
 23 49  1  0
M  CHG  1  16  -1
M  END
>  <score>  (2) 
-9.495

$$$$
=
     RDKit          3D

 49 50  0  0  0  0  0  0  0  0999 V2000
    0.8760   66.5060   69.5120 C   0  0  0  0  0  0  0  0  0  0  0  0
    1.5520   67.4570   69.8930 O   0  0  0  0  0  0  0  0  0  0  0  0
    0.0530   66.5400   68.4210 N   0  0  0  0  0  0  0  0  0  0  0  0
    1.6180   63.3560   72.5140 C   0  0  2  0  0  0  0  0  0  0  0  0
    0.2060   63.9570   72.3690 C   0  0  0  0  0  0  0  0  0  0  0  0
    0.2090   65.2860   71.6170 C   0  0  0  0  0  0  0  0  0  0  0  0
    0.8570   65.1600   70.2360 C   0  0  2  0  0  0  0  0  0  0  0  0
    2.2750   64.5990   70.3760 C   0  0  0  0  0  0  0  0  0  0  0  0
    2.2930   63.2710   71.1300 C   0  0  0  0  0  0  0  0  0  0  0  0
    0.8010   60.9230   72.4340 C   0  0  0  0  0  0  0  0  0  0  0  0
    1.5880   61.9710   73.2300 C   0  0  0  0  0  0  0  0  0  0  0  0
    2.9960   61.4220   73.4940 C   0  0  0  0  0  0  0  0  0  0  0  0
   -0.0200   67.6400   67.4260 C   0  0  1  0  0  0  0  0  0  0  0  0
   -1.5190   68.0550   67.2070 C   0  0  0  0  0  0  0  0  0  0  0  0
   -2.3980   67.4050   67.8350 O   0  0  0  0  0  0  0  0  0  0  0  0
   -1.6600   69.0310   66.3980 O   0  0  0  0  0  1  0  0  0  0  0  0
    0.7840   68.8650   67.8810 C   0  0  0  0  0  0  0  0  0  0  0  0
    2.0500   69.0850   67.0770 C   0  0  0  0  0  0  0  0  0  0  0  0
    3.1850   69.6430   67.6770 C   0  0  0  0  0  0  0  0  0  0  0  0
    4.3490   69.8530   66.9360 C   0  0  0  0  0  0  0  0  0  0  0  0
    4.3880   69.5110   65.5850 C   0  0  0  0  0  0  0  0  0  0  0  0
    3.2590   68.9670   64.9740 C   0  0  0  0  0  0  0  0  0  0  0  0
    2.0950   68.7580   65.7150 C   0  0  0  0  0  0  0  0  0  0  0  0
   -0.5704   65.7329   68.2766 H   0  0  0  0  0  0  0  0  0  0  0  0
    2.2162   64.0213   73.1540 H   0  0  0  0  0  0  0  0  0  0  0  0
   -0.4263   63.2432   71.8207 H   0  0  0  0  0  0  0  0  0  0  0  0
   -0.1812   64.1471   73.3809 H   0  0  0  0  0  0  0  0  0  0  0  0
   -0.8296   65.6264   71.4926 H   0  0  0  0  0  0  0  0  0  0  0  0
    0.7958   66.0080   72.2039 H   0  0  0  0  0  0  0  0  0  0  0  0
    0.2570   64.4650   69.6303 H   0  0  0  0  0  0  0  0  0  0  0  0
    2.6959   64.4430   69.3718 H   0  0  0  0  0  0  0  0  0  0  0  0
    2.8719   65.3234   70.9495 H   0  0  0  0  0  0  0  0  0  0  0  0
    1.7638   62.5183   70.5273 H   0  0  0  0  0  0  0  0  0  0  0  0
    3.3463   62.9990   71.2932 H   0  0  0  0  0  0  0  0  0  0  0  0
    0.2895   60.2419   73.1301 H   0  0  0  0  0  0  0  0  0  0  0  0
    0.0563   61.4270   71.8005 H   0  0  0  0  0  0  0  0  0  0  0  0
    1.4926   60.3483   71.8005 H   0  0  0  0  0  0  0  0  0  0  0  0
    1.0833   62.1534   74.1902 H   0  0  0  0  0  0  0  0  0  0  0  0
    3.1662   61.3556   74.5787 H   0  0  0  0  0  0  0  0  0  0  0  0
    3.0894   60.4216   73.0463 H   0  0  0  0  0  0  0  0  0  0  0  0
    3.7419   62.0952   73.0463 H   0  0  0  0  0  0  0  0  0  0  0  0
    0.4141   67.2734   66.4841 H   0  0  0  0  0  0  0  0  0  0  0  0
    0.1478   69.7567   67.7810 H   0  0  0  0  0  0  0  0  0  0  0  0
    1.0874   68.6863   68.9231 H   0  0  0  0  0  0  0  0  0  0  0  0
    3.1593   69.9183   68.7417 H   0  0  0  0  0  0  0  0  0  0  0  0
    5.2364   70.2887   67.4184 H   0  0  0  0  0  0  0  0  0  0  0  0
    5.3074   69.6700   65.0024 H   0  0  0  0  0  0  0  0  0  0  0  0
    3.2858   68.7022   63.9067 H   0  0  0  0  0  0  0  0  0  0  0  0
    1.2058   68.3332   65.2261 H   0  0  0  0  0  0  0  0  0  0  0  0
  2  1  2  0
  3  1  1  0
  5  4  1  0
  6  5  1  0
  7  6  1  0
  7  1  1  0
  8  7  1  0
  9  8  1  0
  9  4  1  0
 11  4  1  0
 11 10  1  0
 12 11  1  0
 13  3  1  0
 14 13  1  0
 15 14  2  0
 16 14  1  0
 17 13  1  0
 18 17  1  0
 19 18  2  0
 20 19  1  0
 21 20  2  0
 22 21  1  0
 23 22  2  0
 23 18  1  0
  3 24  1  0
  4 25  1  1
  5 26  1  0
  5 27  1  0
  6 28  1  0
  6 29  1  0
  7 30  1  6
  8 31  1  0
  8 32  1  0
  9 33  1  0
  9 34  1  0
 10 35  1  0
 10 36  1  0
 10 37  1  0
 11 38  1  0
 12 39  1  0
 12 40  1  0
 12 41  1  0
 13 42  1  6
 17 43  1  0
 17 44  1  0
 19 45  1  0
 20 46  1  0
 21 47  1  0
 22 48  1  0
 23 49  1  0
M  CHG  1  16  -1
M  END
>  <score>  (3) 
-9.368

$$$$
=
     RDKit          3D

 49 50  0  0  0  0  0  0  0  0999 V2000
    4.3270   69.1210   64.4840 C   0  0  0  0  0  0  0  0  0  0  0  0
    4.4600   69.4410   63.3070 O   0  0  0  0  0  0  0  0  0  0  0  0
    3.6060   68.0400   64.9080 N   0  0  0  0  0  0  0  0  0  0  0  0
    6.1410   70.1350   68.3790 C   0  0  2  0  0  0  0  0  0  0  0  0
    6.9900   70.2190   67.0950 C   0  0  0  0  0  0  0  0  0  0  0  0
    6.3690   69.4520   65.9300 C   0  0  0  0  0  0  0  0  0  0  0  0
    4.9420   69.9210   65.6330 C   0  0  2  0  0  0  0  0  0  0  0  0
    4.0830   69.8040   66.8960 C   0  0  0  0  0  0  0  0  0  0  0  0
    4.6910   70.5620   68.0740 C   0  0  0  0  0  0  0  0  0  0  0  0
    6.8600   70.1770   70.8440 C   0  0  0  0  0  0  0  0  0  0  0  0
    6.7600   70.9740   69.5380 C   0  0  0  0  0  0  0  0  0  0  0  0
    8.1540   71.5100   69.1880 C   0  0  0  0  0  0  0  0  0  0  0  0
    3.0320   66.9870   64.0340 C   0  0  1  0  0  0  0  0  0  0  0  0
    4.0810   65.8350   63.8350 C   0  0  0  0  0  0  0  0  0  0  0  0
    4.0480   64.8730   64.6490 O   0  0  0  0  0  0  0  0  0  0  0  0
    4.8560   66.0240   62.8400 O   0  0  0  0  0  1  0  0  0  0  0  0
    1.7440   66.4010   64.6300 C   0  0  0  0  0  0  0  0  0  0  0  0
    1.0810   67.3140   65.6420 C   0  0  0  0  0  0  0  0  0  0  0  0
    0.1380   68.2650   65.2310 C   0  0  0  0  0  0  0  0  0  0  0  0
   -0.4670   69.1120   66.1610 C   0  0  0  0  0  0  0  0  0  0  0  0
   -0.1310   69.0200   67.5120 C   0  0  0  0  0  0  0  0  0  0  0  0
    0.8160   68.0860   67.9300 C   0  0  0  0  0  0  0  0  0  0  0  0
    1.4210   67.2400   66.9990 C   0  0  0  0  0  0  0  0  0  0  0  0
    3.4474   67.9483   65.9216 H   0  0  0  0  0  0  0  0  0  0  0  0
    6.1320   69.0905   68.7240 H   0  0  0  0  0  0  0  0  0  0  0  0
    7.0904   71.2760   66.8074 H   0  0  0  0  0  0  0  0  0  0  0  0
    7.9674   69.7630   67.3111 H   0  0  0  0  0  0  0  0  0  0  0  0
    6.9875   69.6054   65.0334 H   0  0  0  0  0  0  0  0  0  0  0  0
    6.3274   68.3880   66.2061 H   0  0  0  0  0  0  0  0  0  0  0  0
    4.9780   70.9755   65.3221 H   0  0  0  0  0  0  0  0  0  0  0  0
    3.0848   70.2158   66.6859 H   0  0  0  0  0  0  0  0  0  0  0  0
    4.0252   68.7403   67.1701 H   0  0  0  0  0  0  0  0  0  0  0  0
    4.6834   71.6370   67.8410 H   0  0  0  0  0  0  0  0  0  0  0  0
    4.0853   70.3312   68.9627 H   0  0  0  0  0  0  0  0  0  0  0  0
    6.7739   70.8629   71.6996 H   0  0  0  0  0  0  0  0  0  0  0  0
    6.0477   69.4363   70.8847 H   0  0  0  0  0  0  0  0  0  0  0  0
    7.8301   69.6600   70.8847 H   0  0  0  0  0  0  0  0  0  0  0  0
    6.0714   71.8198   69.6810 H   0  0  0  0  0  0  0  0  0  0  0  0
    8.7081   71.7230   70.1141 H   0  0  0  0  0  0  0  0  0  0  0  0
    8.6991   70.7573   68.5995 H   0  0  0  0  0  0  0  0  0  0  0  0
    8.0544   72.4340   68.5995 H   0  0  0  0  0  0  0  0  0  0  0  0
    2.7864   67.4485   63.0662 H   0  0  0  0  0  0  0  0  0  0  0  0
    1.0340   66.2141   63.8109 H   0  0  0  0  0  0  0  0  0  0  0  0
    2.0211   65.4767   65.1581 H   0  0  0  0  0  0  0  0  0  0  0  0
   -0.1279   68.3449   64.1666 H   0  0  0  0  0  0  0  0  0  0  0  0
   -1.2093   69.8526   65.8285 H   0  0  0  0  0  0  0  0  0  0  0  0
   -0.6123   69.6831   68.2459 H   0  0  0  0  0  0  0  0  0  0  0  0
    1.0865   68.0158   68.9939 H   0  0  0  0  0  0  0  0  0  0  0  0
    2.1714   66.5087   67.3339 H   0  0  0  0  0  0  0  0  0  0  0  0
  2  1  2  0
  3  1  1  0
  5  4  1  0
  6  5  1  0
  7  6  1  0
  7  1  1  0
  8  7  1  0
  9  8  1  0
  9  4  1  0
 11  4  1  0
 11 10  1  0
 12 11  1  0
 13  3  1  0
 14 13  1  0
 15 14  2  0
 16 14  1  0
 17 13  1  0
 18 17  1  0
 19 18  2  0
 20 19  1  0
 21 20  2  0
 22 21  1  0
 23 22  2  0
 23 18  1  0
  3 24  1  0
  4 25  1  1
  5 26  1  0
  5 27  1  0
  6 28  1  0
  6 29  1  0
  7 30  1  6
  8 31  1  0
  8 32  1  0
  9 33  1  0
  9 34  1  0
 10 35  1  0
 10 36  1  0
 10 37  1  0
 11 38  1  0
 12 39  1  0
 12 40  1  0
 12 41  1  0
 13 42  1  6
 17 43  1  0
 17 44  1  0
 19 45  1  0
 20 46  1  0
 21 47  1  0
 22 48  1  0
 23 49  1  0
M  CHG  1  16  -1
M  END
>  <score>  (4) 
-9.218

$$$$
=
     RDKit          3D

 49 50  0  0  0  0  0  0  0  0999 V2000
    3.5460   69.3490   65.2260 C   0  0  0  0  0  0  0  0  0  0  0  0
    3.8090   69.3520   64.0270 O   0  0  0  0  0  0  0  0  0  0  0  0
    2.4770   68.6970   65.7740 N   0  0  0  0  0  0  0  0  0  0  0  0
    6.1090   70.2180   68.7130 C   0  0  2  0  0  0  0  0  0  0  0  0
    6.6830   70.3570   67.2890 C   0  0  0  0  0  0  0  0  0  0  0  0
    5.8370   69.6340   66.2430 C   0  0  0  0  0  0  0  0  0  0  0  0
    4.3810   70.1060   66.2580 C   0  0  2  0  0  0  0  0  0  0  0  0
    3.7930   69.9350   67.6620 C   0  0  0  0  0  0  0  0  0  0  0  0
    4.6280   70.6490   68.7230 C   0  0  0  0  0  0  0  0  0  0  0  0
    7.2310   70.1970   71.0230 C   0  0  0  0  0  0  0  0  0  0  0  0
    6.9510   71.0150   69.7560 C   0  0  0  0  0  0  0  0  0  0  0  0
    8.2910   71.4920   69.1800 C   0  0  0  0  0  0  0  0  0  0  0  0
    1.5820   67.7510   65.0620 C   0  0  1  0  0  0  0  0  0  0  0  0
    0.2360   68.4710   64.6940 C   0  0  0  0  0  0  0  0  0  0  0  0
   -0.5170   68.8130   65.6450 O   0  0  0  0  0  0  0  0  0  0  0  0
    0.0730   68.6260   63.4380 O   0  0  0  0  0  1  0  0  0  0  0  0
    2.2360   67.2120   63.7810 C   0  0  0  0  0  0  0  0  0  0  0  0
    3.1270   66.0110   64.0210 C   0  0  0  0  0  0  0  0  0  0  0  0
    2.7570   65.0240   64.9430 C   0  0  0  0  0  0  0  0  0  0  0  0
    3.5810   63.9200   65.1700 C   0  0  0  0  0  0  0  0  0  0  0  0
    4.7870   63.7950   64.4820 C   0  0  0  0  0  0  0  0  0  0  0  0
    5.1720   64.7780   63.5720 C   0  0  0  0  0  0  0  0  0  0  0  0
    4.3480   65.8820   63.3450 C   0  0  0  0  0  0  0  0  0  0  0  0
    2.2749   68.8779   66.7676 H   0  0  0  0  0  0  0  0  0  0  0  0
    6.1665   69.1608   69.0112 H   0  0  0  0  0  0  0  0  0  0  0  0
    6.7275   71.4250   67.0295 H   0  0  0  0  0  0  0  0  0  0  0  0
    7.6824   69.8974   67.2857 H   0  0  0  0  0  0  0  0  0  0  0  0
    6.2626   69.8264   65.2471 H   0  0  0  0  0  0  0  0  0  0  0  0
    5.8487   68.5598   66.4796 H   0  0  0  0  0  0  0  0  0  0  0  0
    4.3566   71.1722   65.9884 H   0  0  0  0  0  0  0  0  0  0  0  0
    2.7743   70.3499   67.6733 H   0  0  0  0  0  0  0  0  0  0  0  0
    3.7879   68.8610   67.8997 H   0  0  0  0  0  0  0  0  0  0  0  0
    4.5767   71.7323   68.5393 H   0  0  0  0  0  0  0  0  0  0  0  0
    4.2129   70.3797   69.7054 H   0  0  0  0  0  0  0  0  0  0  0  0
    7.0205   70.8119   71.9104 H   0  0  0  0  0  0  0  0  0  0  0  0
    6.5869   69.3054   71.0336 H   0  0  0  0  0  0  0  0  0  0  0  0
    8.2864   69.8871   71.0336 H   0  0  0  0  0  0  0  0  0  0  0  0
    6.3362   71.8893   70.0160 H   0  0  0  0  0  0  0  0  0  0  0  0
    8.9779   71.7365   70.0036 H   0  0  0  0  0  0  0  0  0  0  0  0
    8.7290   70.6946   68.5617 H   0  0  0  0  0  0  0  0  0  0  0  0
    8.1266   72.3868   68.5617 H   0  0  0  0  0  0  0  0  0  0  0  0
    1.3864   66.9017   65.7331 H   0  0  0  0  0  0  0  0  0  0  0  0
    1.4406   66.9215   63.0789 H   0  0  0  0  0  0  0  0  0  0  0  0
    2.8726   68.0139   63.3788 H   0  0  0  0  0  0  0  0  0  0  0  0
    1.8092   65.1193   65.4930 H   0  0  0  0  0  0  0  0  0  0  0  0
    3.2782   63.1479   65.8926 H   0  0  0  0  0  0  0  0  0  0  0  0
    5.4334   62.9224   64.6570 H   0  0  0  0  0  0  0  0  0  0  0  0
    6.1258   64.6839   63.0322 H   0  0  0  0  0  0  0  0  0  0  0  0
    4.6597   66.6572   62.6295 H   0  0  0  0  0  0  0  0  0  0  0  0
  2  1  2  0
  3  1  1  0
  5  4  1  0
  6  5  1  0
  7  6  1  0
  7  1  1  0
  8  7  1  0
  9  8  1  0
  9  4  1  0
 11  4  1  0
 11 10  1  0
 12 11  1  0
 13  3  1  0
 14 13  1  0
 15 14  2  0
 16 14  1  0
 17 13  1  0
 18 17  1  0
 19 18  2  0
 20 19  1  0
 21 20  2  0
 22 21  1  0
 23 22  2  0
 23 18  1  0
  3 24  1  0
  4 25  1  1
  5 26  1  0
  5 27  1  0
  6 28  1  0
  6 29  1  0
  7 30  1  6
  8 31  1  0
  8 32  1  0
  9 33  1  0
  9 34  1  0
 10 35  1  0
 10 36  1  0
 10 37  1  0
 11 38  1  0
 12 39  1  0
 12 40  1  0
 12 41  1  0
 13 42  1  1
 17 43  1  0
 17 44  1  0
 19 45  1  0
 20 46  1  0
 21 47  1  0
 22 48  1  0
 23 49  1  0
M  CHG  1  16  -1
M  END
>  <score>  (5) 
-8.475

$$$$
=
     RDKit          3D

 49 50  0  0  0  0  0  0  0  0999 V2000
    1.1290   66.2740   69.8880 C   0  0  0  0  0  0  0  0  0  0  0  0
    2.2550   66.5910   70.2580 O   0  0  0  0  0  0  0  0  0  0  0  0
    0.5450   65.0680   70.1580 N   0  0  0  0  0  0  0  0  0  0  0  0
   -1.0390   68.0180   66.4610 C   0  0  2  0  0  0  0  0  0  0  0  0
   -1.8260   67.3300   67.5940 C   0  0  0  0  0  0  0  0  0  0  0  0
   -0.9440   66.4320   68.4590 C   0  0  0  0  0  0  0  0  0  0  0  0
    0.2430   67.1960   69.0500 C   0  0  2  0  0  0  0  0  0  0  0  0
    1.0510   67.8520   67.9270 C   0  0  0  0  0  0  0  0  0  0  0  0
    0.1850   68.7510   67.0480 C   0  0  0  0  0  0  0  0  0  0  0  0
   -1.6260   68.9200   64.1290 C   0  0  0  0  0  0  0  0  0  0  0  0
   -1.9430   68.9780   65.6280 C   0  0  0  0  0  0  0  0  0  0  0  0
   -3.4360   68.6820   65.8200 C   0  0  0  0  0  0  0  0  0  0  0  0
    1.0810   64.0340   71.0780 C   0  0  1  0  0  0  0  0  0  0  0  0
    0.0160   63.7090   72.1860 C   0  0  0  0  0  0  0  0  0  0  0  0
   -0.6040   62.6150   72.0910 O   0  0  0  0  0  0  0  0  0  0  0  0
   -0.0870   64.6210   73.0710 O   0  0  0  0  0  1  0  0  0  0  0  0
    1.4410   62.7440   70.3270 C   0  0  0  0  0  0  0  0  0  0  0  0
    2.8170   62.2130   70.6710 C   0  0  0  0  0  0  0  0  0  0  0  0
    3.9270   63.0670   70.6790 C   0  0  0  0  0  0  0  0  0  0  0  0
    5.1970   62.5770   70.9890 C   0  0  0  0  0  0  0  0  0  0  0  0
    5.3710   61.2260   71.2880 C   0  0  0  0  0  0  0  0  0  0  0  0
    4.2760   60.3640   71.2690 C   0  0  0  0  0  0  0  0  0  0  0  0
    3.0050   60.8540   70.9590 C   0  0  0  0  0  0  0  0  0  0  0  0
   -0.3440   64.8587   69.6818 H   0  0  0  0  0  0  0  0  0  0  0  0
   -0.6831   67.2452   65.7637 H   0  0  0  0  0  0  0  0  0  0  0  0
   -2.2740   68.1051   68.2331 H   0  0  0  0  0  0  0  0  0  0  0  0
   -2.5941   66.6948   67.1287 H   0  0  0  0  0  0  0  0  0  0  0  0
   -1.5499   66.0247   69.2818 H   0  0  0  0  0  0  0  0  0  0  0  0
   -0.5482   65.6274   67.8218 H   0  0  0  0  0  0  0  0  0  0  0  0
   -0.1435   67.9814   69.7161 H   0  0  0  0  0  0  0  0  0  0  0  0
    1.8526   68.4584   68.3740 H   0  0  0  0  0  0  0  0  0  0  0  0
    1.4625   67.0525   67.2933 H   0  0  0  0  0  0  0  0  0  0  0  0
   -0.1702   69.5974   67.6541 H   0  0  0  0  0  0  0  0  0  0  0  0
    0.8063   69.0842   66.2036 H   0  0  0  0  0  0  0  0  0  0  0  0
   -0.5528   68.7236   63.9885 H   0  0  0  0  0  0  0  0  0  0  0  0
   -2.2105   68.1139   63.6615 H   0  0  0  0  0  0  0  0  0  0  0  0
   -1.8872   69.8809   63.6615 H   0  0  0  0  0  0  0  0  0  0  0  0
   -1.7204   69.9862   66.0074 H   0  0  0  0  0  0  0  0  0  0  0  0
   -3.6655   68.6365   66.8948 H   0  0  0  0  0  0  0  0  0  0  0  0
   -4.0312   69.4796   65.3514 H   0  0  0  0  0  0  0  0  0  0  0  0
   -3.6818   67.7176   65.3514 H   0  0  0  0  0  0  0  0  0  0  0  0
    1.9973   64.4330   71.5376 H   0  0  0  0  0  0  0  0  0  0  0  0
    0.6969   61.9742   70.5793 H   0  0  0  0  0  0  0  0  0  0  0  0
    1.4437   62.9828   69.2532 H   0  0  0  0  0  0  0  0  0  0  0  0
    3.7971   64.1326   70.4391 H   0  0  0  0  0  0  0  0  0  0  0  0
    6.0614   63.2573   70.9974 H   0  0  0  0  0  0  0  0  0  0  0  0
    6.3707   60.8414   71.5384 H   0  0  0  0  0  0  0  0  0  0  0  0
    4.4127   59.2969   71.4983 H   0  0  0  0  0  0  0  0  0  0  0  0
    2.1452   60.1682   70.9408 H   0  0  0  0  0  0  0  0  0  0  0  0
  2  1  2  0
  3  1  1  0
  5  4  1  0
  6  5  1  0
  7  6  1  0
  7  1  1  0
  8  7  1  0
  9  8  1  0
  9  4  1  0
 11  4  1  0
 11 10  1  0
 12 11  1  0
 13  3  1  0
 14 13  1  0
 15 14  2  0
 16 14  1  0
 17 13  1  0
 18 17  1  0
 19 18  2  0
 20 19  1  0
 21 20  2  0
 22 21  1  0
 23 22  2  0
 23 18  1  0
  3 24  1  0
  4 25  1  6
  5 26  1  0
  5 27  1  0
  6 28  1  0
  6 29  1  0
  7 30  1  1
  8 31  1  0
  8 32  1  0
  9 33  1  0
  9 34  1  0
 10 35  1  0
 10 36  1  0
 10 37  1  0
 11 38  1  0
 12 39  1  0
 12 40  1  0
 12 41  1  0
 13 42  1  1
 17 43  1  0
 17 44  1  0
 19 45  1  0
 20 46  1  0
 21 47  1  0
 22 48  1  0
 23 49  1  0
M  CHG  1  16  -1
M  END
>  <score>  (6) 
-8.313

$$$$
=
     RDKit          3D

 49 50  0  0  0  0  0  0  0  0999 V2000
    4.3730   60.5080   71.2210 C   0  0  0  0  0  0  0  0  0  0  0  0
    5.4900   60.6150   70.7250 O   0  0  0  0  0  0  0  0  0  0  0  0
    3.4460   61.5130   71.2440 N   0  0  0  0  0  0  0  0  0  0  0  0
    1.7180   57.3630   72.8170 C   0  0  2  0  0  0  0  0  0  0  0  0
    2.6020   57.0670   71.5900 C   0  0  0  0  0  0  0  0  0  0  0  0
    3.1210   58.3380   70.9210 C   0  0  0  0  0  0  0  0  0  0  0  0
    3.8870   59.2280   71.9020 C   0  0  2  0  0  0  0  0  0  0  0  0
    3.0010   59.5580   73.1070 C   0  0  0  0  0  0  0  0  0  0  0  0
    2.4680   58.2980   73.7870 C   0  0  0  0  0  0  0  0  0  0  0  0
    1.8850   55.8790   74.9070 C   0  0  0  0  0  0  0  0  0  0  0  0
    1.2490   56.0540   73.5220 C   0  0  0  0  0  0  0  0  0  0  0  0
   -0.2760   55.9920   73.6790 C   0  0  0  0  0  0  0  0  0  0  0  0
    3.5570   62.8090   70.5280 C   0  0  1  0  0  0  0  0  0  0  0  0
    3.2910   62.5910   68.9960 C   0  0  0  0  0  0  0  0  0  0  0  0
    4.1120   63.0990   68.1870 O   0  0  0  0  0  0  0  0  0  0  0  0
    2.2450   61.9010   68.7580 O   0  0  0  0  0  1  0  0  0  0  0  0
    2.5590   63.8410   71.0740 C   0  0  0  0  0  0  0  0  0  0  0  0
    1.5350   63.2450   72.0190 C   0  0  0  0  0  0  0  0  0  0  0  0
    0.3050   62.7850   71.5360 C   0  0  0  0  0  0  0  0  0  0  0  0
   -0.6420   62.2420   72.4060 C   0  0  0  0  0  0  0  0  0  0  0  0
   -0.3700   62.1600   73.7710 C   0  0  0  0  0  0  0  0  0  0  0  0
    0.8470   62.6280   74.2660 C   0  0  0  0  0  0  0  0  0  0  0  0
    1.7940   63.1710   73.3940 C   0  0  0  0  0  0  0  0  0  0  0  0
    2.5974   61.3575   71.8067 H   0  0  0  0  0  0  0  0  0  0  0  0
    0.8060   57.8739   72.4746 H   0  0  0  0  0  0  0  0  0  0  0  0
    3.4622   56.4622   71.9129 H   0  0  0  0  0  0  0  0  0  0  0  0
    1.9835   56.5316   70.8546 H   0  0  0  0  0  0  0  0  0  0  0  0
    3.7931   58.0569   70.0968 H   0  0  0  0  0  0  0  0  0  0  0  0
    2.2548   58.9060   70.5507 H   0  0  0  0  0  0  0  0  0  0  0  0
    4.7741   58.6793   72.2513 H   0  0  0  0  0  0  0  0  0  0  0  0
    3.5920   60.1321   73.8358 H   0  0  0  0  0  0  0  0  0  0  0  0
    2.1399   60.1400   72.7466 H   0  0  0  0  0  0  0  0  0  0  0  0
    3.3163   57.7473   74.2196 H   0  0  0  0  0  0  0  0  0  0  0  0
    1.7509   58.6175   74.5575 H   0  0  0  0  0  0  0  0  0  0  0  0
    1.1342   56.0856   75.6840 H   0  0  0  0  0  0  0  0  0  0  0  0
    2.2501   54.8470   75.0151 H   0  0  0  0  0  0  0  0  0  0  0  0
    2.7267   56.5789   75.0151 H   0  0  0  0  0  0  0  0  0  0  0  0
    1.5808   55.2378   72.8633 H   0  0  0  0  0  0  0  0  0  0  0  0
   -0.5344   55.9815   74.7482 H   0  0  0  0  0  0  0  0  0  0  0  0
   -0.7299   56.8724   73.2007 H   0  0  0  0  0  0  0  0  0  0  0  0
   -0.6570   55.0776   73.2007 H   0  0  0  0  0  0  0  0  0  0  0  0
    4.5747   63.1958   70.6851 H   0  0  0  0  0  0  0  0  0  0  0  0
    3.1206   64.6181   71.6132 H   0  0  0  0  0  0  0  0  0  0  0  0
    2.0087   64.2483   70.2130 H   0  0  0  0  0  0  0  0  0  0  0  0
    0.0822   62.8519   70.4609 H   0  0  0  0  0  0  0  0  0  0  0  0
   -1.6035   61.8785   72.0144 H   0  0  0  0  0  0  0  0  0  0  0  0
   -1.1138   61.7271   74.4561 H   0  0  0  0  0  0  0  0  0  0  0  0
    1.0613   62.5696   75.3433 H   0  0  0  0  0  0  0  0  0  0  0  0
    2.7503   63.5433   73.7900 H   0  0  0  0  0  0  0  0  0  0  0  0
  2  1  2  0
  3  1  1  0
  5  4  1  0
  6  5  1  0
  7  6  1  0
  7  1  1  0
  8  7  1  0
  9  8  1  0
  9  4  1  0
 11  4  1  0
 11 10  1  0
 12 11  1  0
 13  3  1  0
 14 13  1  0
 15 14  2  0
 16 14  1  0
 17 13  1  0
 18 17  1  0
 19 18  2  0
 20 19  1  0
 21 20  2  0
 22 21  1  0
 23 22  2  0
 23 18  1  0
  3 24  1  0
  4 25  1  6
  5 26  1  0
  5 27  1  0
  6 28  1  0
  6 29  1  0
  7 30  1  1
  8 31  1  0
  8 32  1  0
  9 33  1  0
  9 34  1  0
 10 35  1  0
 10 36  1  0
 10 37  1  0
 11 38  1  0
 12 39  1  0
 12 40  1  0
 12 41  1  0
 13 42  1  6
 17 43  1  0
 17 44  1  0
 19 45  1  0
 20 46  1  0
 21 47  1  0
 22 48  1  0
 23 49  1  0
M  CHG  1  16  -1
M  END
>  <score>  (7) 
-8.27

$$$$
=
     RDKit          3D

 49 50  0  0  0  0  0  0  0  0999 V2000
    2.2340   60.0680   73.3560 C   0  0  0  0  0  0  0  0  0  0  0  0
    3.2670   60.2750   73.9850 O   0  0  0  0  0  0  0  0  0  0  0  0
    2.1860   59.4110   72.1580 N   0  0  0  0  0  0  0  0  0  0  0  0
   -2.1310   60.3460   73.9520 C   0  0  2  0  0  0  0  0  0  0  0  0
   -1.2240   59.9250   75.1250 C   0  0  0  0  0  0  0  0  0  0  0  0
    0.1600   59.4740   74.6640 C   0  0  0  0  0  0  0  0  0  0  0  0
    0.8630   60.5490   73.8320 C   0  0  2  0  0  0  0  0  0  0  0  0
   -0.0160   60.9450   72.6420 C   0  0  0  0  0  0  0  0  0  0  0  0
   -1.4070   61.3950   73.0840 C   0  0  0  0  0  0  0  0  0  0  0  0
   -4.4650   59.7140   74.8170 C   0  0  0  0  0  0  0  0  0  0  0  0
   -3.5170   60.8610   74.4470 C   0  0  0  0  0  0  0  0  0  0  0  0
   -3.3910   61.7960   75.6570 C   0  0  0  0  0  0  0  0  0  0  0  0
    3.3150   58.6880   71.5210 C   0  0  1  0  0  0  0  0  0  0  0  0
    2.9520   57.1680   71.3690 C   0  0  0  0  0  0  0  0  0  0  0  0
    3.6270   56.4900   70.5480 O   0  0  0  0  0  0  0  0  0  0  0  0
    1.9910   56.8000   72.1220 O   0  0  0  0  0  1  0  0  0  0  0  0
    3.6490   59.2710   70.1400 C   0  0  0  0  0  0  0  0  0  0  0  0
    3.9190   60.7620   70.1660 C   0  0  0  0  0  0  0  0  0  0  0  0
    3.1780   61.6330   69.3580 C   0  0  0  0  0  0  0  0  0  0  0  0
    3.4310   63.0050   69.3760 C   0  0  0  0  0  0  0  0  0  0  0  0
    4.4320   63.5200   70.1990 C   0  0  0  0  0  0  0  0  0  0  0  0
    5.1850   62.6610   70.9970 C   0  0  0  0  0  0  0  0  0  0  0  0
    4.9320   61.2880   70.9790 C   0  0  0  0  0  0  0  0  0  0  0  0
    1.2881   59.4184   71.6535 H   0  0  0  0  0  0  0  0  0  0  0  0
   -2.3341   59.4600   73.3325 H   0  0  0  0  0  0  0  0  0  0  0  0
   -1.1071   60.7816   75.8051 H   0  0  0  0  0  0  0  0  0  0  0  0
   -1.7028   59.0712   75.6268 H   0  0  0  0  0  0  0  0  0  0  0  0
    0.7743   59.2509   75.5488 H   0  0  0  0  0  0  0  0  0  0  0  0
    0.0350   58.5819   74.0327 H   0  0  0  0  0  0  0  0  0  0  0  0
    1.0222   61.4331   74.4669 H   0  0  0  0  0  0  0  0  0  0  0  0
    0.4693   61.7707   72.1010 H   0  0  0  0  0  0  0  0  0  0  0  0
   -0.1332   60.0618   71.9969 H   0  0  0  0  0  0  0  0  0  0  0  0
   -1.3069   62.3231   73.6660 H   0  0  0  0  0  0  0  0  0  0  0  0
   -2.0094   61.5435   72.1757 H   0  0  0  0  0  0  0  0  0  0  0  0
   -4.5323   59.6326   75.9119 H   0  0  0  0  0  0  0  0  0  0  0  0
   -5.4637   59.9155   74.4023 H   0  0  0  0  0  0  0  0  0  0  0  0
   -4.0791   58.7711   74.4023 H   0  0  0  0  0  0  0  0  0  0  0  0
   -3.9374   61.4199   73.5979 H   0  0  0  0  0  0  0  0  0  0  0  0
   -3.4701   61.2089   76.5839 H   0  0  0  0  0  0  0  0  0  0  0  0
   -2.4162   62.3048   75.6273 H   0  0  0  0  0  0  0  0  0  0  0  0
   -4.1964   62.5447   75.6273 H   0  0  0  0  0  0  0  0  0  0  0  0
    4.1977   58.8035   72.1672 H   0  0  0  0  0  0  0  0  0  0  0  0
    4.5438   58.7612   69.7533 H   0  0  0  0  0  0  0  0  0  0  0  0
    2.7699   59.1111   69.4985 H   0  0  0  0  0  0  0  0  0  0  0  0
    2.3899   61.2323   68.7036 H   0  0  0  0  0  0  0  0  0  0  0  0
    2.8403   63.6811   68.7404 H   0  0  0  0  0  0  0  0  0  0  0  0
    4.6268   64.6024   70.2182 H   0  0  0  0  0  0  0  0  0  0  0  0
    5.9795   63.0650   71.6417 H   0  0  0  0  0  0  0  0  0  0  0  0
    5.5324   60.6141   71.6078 H   0  0  0  0  0  0  0  0  0  0  0  0
  2  1  2  0
  3  1  1  0
  5  4  1  0
  6  5  1  0
  7  6  1  0
  7  1  1  0
  8  7  1  0
  9  8  1  0
  9  4  1  0
 11  4  1  0
 11 10  1  0
 12 11  1  0
 13  3  1  0
 14 13  1  0
 15 14  2  0
 16 14  1  0
 17 13  1  0
 18 17  1  0
 19 18  2  0
 20 19  1  0
 21 20  2  0
 22 21  1  0
 23 22  2  0
 23 18  1  0
  3 24  1  0
  4 25  1  6
  5 26  1  0
  5 27  1  0
  6 28  1  0
  6 29  1  0
  7 30  1  1
  8 31  1  0
  8 32  1  0
  9 33  1  0
  9 34  1  0
 10 35  1  0
 10 36  1  0
 10 37  1  0
 11 38  1  0
 12 39  1  0
 12 40  1  0
 12 41  1  0
 13 42  1  1
 17 43  1  0
 17 44  1  0
 19 45  1  0
 20 46  1  0
 21 47  1  0
 22 48  1  0
 23 49  1  0
M  CHG  1  16  -1
M  END
>  <score>  (8) 
-8.252

$$$$
=
     RDKit          3D

 49 50  0  0  0  0  0  0  0  0999 V2000
    2.5310   60.3430   73.1130 C   0  0  0  0  0  0  0  0  0  0  0  0
    2.8940   61.2640   73.8390 O   0  0  0  0  0  0  0  0  0  0  0  0
    2.6860   60.3310   71.7550 N   0  0  0  0  0  0  0  0  0  0  0  0
    0.0110   56.7250   73.3330 C   0  0  2  0  0  0  0  0  0  0  0  0
    1.5470   56.5910   73.3700 C   0  0  0  0  0  0  0  0  0  0  0  0
    2.2570   57.8460   72.8690 C   0  0  0  0  0  0  0  0  0  0  0  0
    1.8320   59.0930   73.6490 C   0  0  2  0  0  0  0  0  0  0  0  0
    0.3110   59.2540   73.5850 C   0  0  0  0  0  0  0  0  0  0  0  0
   -0.4180   58.0050   74.0790 C   0  0  0  0  0  0  0  0  0  0  0  0
    0.2990   54.3360   74.2300 C   0  0  0  0  0  0  0  0  0  0  0  0
   -0.6940   55.4580   73.9060 C   0  0  0  0  0  0  0  0  0  0  0  0
   -1.5060   55.7670   75.1710 C   0  0  0  0  0  0  0  0  0  0  0  0
    3.4670   61.3150   70.9640 C   0  0  1  0  0  0  0  0  0  0  0  0
    4.7130   60.6080   70.3210 C   0  0  0  0  0  0  0  0  0  0  0  0
    4.5620   60.0950   69.1790 O   0  0  0  0  0  0  0  0  0  0  0  0
    5.7530   60.6470   71.0580 O   0  0  0  0  0  1  0  0  0  0  0  0
    2.6150   61.9490   69.8550 C   0  0  0  0  0  0  0  0  0  0  0  0
    1.8410   63.1680   70.3150 C   0  0  0  0  0  0  0  0  0  0  0  0
    0.7130   63.0270   71.1330 C   0  0  0  0  0  0  0  0  0  0  0  0
   -0.0050   64.1480   71.5520 C   0  0  0  0  0  0  0  0  0  0  0  0
    0.3940   65.4230   71.1500 C   0  0  0  0  0  0  0  0  0  0  0  0
    1.5080   65.5740   70.3250 C   0  0  0  0  0  0  0  0  0  0  0  0
    2.2250   64.4520   69.9070 C   0  0  0  0  0  0  0  0  0  0  0  0
    2.2204   59.5733   71.2353 H   0  0  0  0  0  0  0  0  0  0  0  0
   -0.3075   56.8086   72.2834 H   0  0  0  0  0  0  0  0  0  0  0  0
    1.8592   56.3997   74.4073 H   0  0  0  0  0  0  0  0  0  0  0  0
    1.8256   55.7615   72.7034 H   0  0  0  0  0  0  0  0  0  0  0  0
    3.3426   57.7091   72.9815 H   0  0  0  0  0  0  0  0  0  0  0  0
    1.9829   57.9942   71.8141 H   0  0  0  0  0  0  0  0  0  0  0  0
    2.1335   58.9671   74.6993 H   0  0  0  0  0  0  0  0  0  0  0  0
    0.0175   60.1082   74.2129 H   0  0  0  0  0  0  0  0  0  0  0  0
    0.0305   59.4179   72.5341 H   0  0  0  0  0  0  0  0  0  0  0  0
   -0.2049   57.8749   75.1503 H   0  0  0  0  0  0  0  0  0  0  0  0
   -1.4915   58.1530   73.8901 H   0  0  0  0  0  0  0  0  0  0  0  0
    0.3912   54.2318   75.3212 H   0  0  0  0  0  0  0  0  0  0  0  0
   -0.0634   53.3903   73.8007 H   0  0  0  0  0  0  0  0  0  0  0  0
    1.2817   54.5808   73.8007 H   0  0  0  0  0  0  0  0  0  0  0  0
   -1.3743   55.1218   73.1097 H   0  0  0  0  0  0  0  0  0  0  0  0
   -0.9010   55.5368   76.0604 H   0  0  0  0  0  0  0  0  0  0  0  0
   -1.7801   56.8323   75.1797 H   0  0  0  0  0  0  0  0  0  0  0  0
   -2.4189   55.1534   75.1797 H   0  0  0  0  0  0  0  0  0  0  0  0
    3.7946   62.1130   71.6466 H   0  0  0  0  0  0  0  0  0  0  0  0
    3.2804   62.2483   69.0318 H   0  0  0  0  0  0  0  0  0  0  0  0
    1.8781   61.1955   69.5400 H   0  0  0  0  0  0  0  0  0  0  0  0
    0.3901   62.0238   71.4480 H   0  0  0  0  0  0  0  0  0  0  0  0
   -0.8859   64.0262   72.1995 H   0  0  0  0  0  0  0  0  0  0  0  0
   -0.1690   66.3073   71.4832 H   0  0  0  0  0  0  0  0  0  0  0  0
    1.8218   66.5781   70.0035 H   0  0  0  0  0  0  0  0  0  0  0  0
    3.0994   64.5769   69.2514 H   0  0  0  0  0  0  0  0  0  0  0  0
  2  1  2  0
  3  1  1  0
  5  4  1  0
  6  5  1  0
  7  6  1  0
  7  1  1  0
  8  7  1  0
  9  8  1  0
  9  4  1  0
 11  4  1  0
 11 10  1  0
 12 11  1  0
 13  3  1  0
 14 13  1  0
 15 14  2  0
 16 14  1  0
 17 13  1  0
 18 17  1  0
 19 18  2  0
 20 19  1  0
 21 20  2  0
 22 21  1  0
 23 22  2  0
 23 18  1  0
  3 24  1  0
  4 25  1  6
  5 26  1  0
  5 27  1  0
  6 28  1  0
  6 29  1  0
  7 30  1  1
  8 31  1  0
  8 32  1  0
  9 33  1  0
  9 34  1  0
 10 35  1  0
 10 36  1  0
 10 37  1  0
 11 38  1  0
 12 39  1  0
 12 40  1  0
 12 41  1  0
 13 42  1  1
 17 43  1  0
 17 44  1  0
 19 45  1  0
 20 46  1  0
 21 47  1  0
 22 48  1  0
 23 49  1  0
M  CHG  1  16  -1
M  END
>  <score>  (9) 
-8.054

$$$$
