=
     RDKit          3D

 24 26  0  0  0  0  0  0  0  0999 V2000
    1.9100   69.4020   68.0110 O   0  0  0  0  0  0  0  0  0  0  0  0
    2.7530   69.4320   67.1240 C   0  0  0  0  0  0  0  0  0  0  0  0
    2.3970   68.9780   65.7250 C   0  0  0  0  0  0  0  0  0  0  0  0
    1.2650   68.5810   65.4780 O   0  0  0  0  0  0  0  0  0  0  0  0
    3.4360   69.0270   64.6780 C   0  0  0  0  0  0  0  0  0  0  0  0
    3.0830   68.6000   63.3860 C   0  0  0  0  0  0  0  0  0  0  0  0
    4.0220   68.6240   62.3610 C   0  0  0  0  0  0  0  0  0  0  0  0
    5.3070   69.0720   62.6270 C   0  0  0  0  0  0  0  0  0  0  0  0
    5.6550   69.4970   63.9160 C   0  0  0  0  0  0  0  0  0  0  0  0
    4.7300   69.4880   64.9820 C   0  0  0  0  0  0  0  0  0  0  0  0
    5.0790   69.9330   66.3550 C   0  0  0  0  0  0  0  0  0  0  0  0
    4.1240   69.9060   67.3880 C   0  0  0  0  0  0  0  0  0  0  0  0
    4.4340   70.3230   68.6950 C   0  0  0  0  0  0  0  0  0  0  0  0
    5.7100   70.7790   69.0010 C   0  0  0  0  0  0  0  0  0  0  0  0
    6.6750   70.8190   68.0050 C   0  0  0  0  0  0  0  0  0  0  0  0
    6.3630   70.4010   66.7040 C   0  0  0  0  0  0  0  0  0  0  0  0
    2.0610   68.2459   63.1855 H   0  0  0  0  0  0  0  0  0  0  0  0
    3.7483   68.2909   61.3490 H   0  0  0  0  0  0  0  0  0  0  0  0
    6.0567   69.0938   61.8223 H   0  0  0  0  0  0  0  0  0  0  0  0
    6.6805   69.8484   64.1029 H   0  0  0  0  0  0  0  0  0  0  0  0
    3.6626   70.2879   69.4784 H   0  0  0  0  0  0  0  0  0  0  0  0
    5.9529   71.1052   70.0230 H   0  0  0  0  0  0  0  0  0  0  0  0
    7.6879   71.1798   68.2370 H   0  0  0  0  0  0  0  0  0  0  0  0
    7.1443   70.4392   65.9306 H   0  0  0  0  0  0  0  0  0  0  0  0
  2  1  2  0
  3  2  1  0
  4  3  2  0
  5  3  1  0
  6  5  1  0
  7  6  2  0
  8  7  1  0
  9  8  2  0
 10  5  2  0
 10  9  1  0
 11 10  1  0
 12 11  2  0
 12  2  1  0
 13 12  1  0
 14 13  2  0
 15 14  1  0
 16 11  1  0
 16 15  2  0
  6 17  1  0
  7 18  1  0
  8 19  1  0
  9 20  1  0
 13 21  1  0
 14 22  1  0
 15 23  1  0
 16 24  1  0
M  END
>  <score>  (1) 
-10.89

$$$$
=
     RDKit          3D

 24 26  0  0  0  0  0  0  0  0999 V2000
    1.1280   68.5630   65.4800 O   0  0  0  0  0  0  0  0  0  0  0  0
    2.2560   68.9650   65.7340 C   0  0  0  0  0  0  0  0  0  0  0  0
    2.6020   69.4140   67.1370 C   0  0  0  0  0  0  0  0  0  0  0  0
    1.7550   69.3750   68.0200 O   0  0  0  0  0  0  0  0  0  0  0  0
    3.9710   69.8920   67.4100 C   0  0  0  0  0  0  0  0  0  0  0  0
    4.2710   70.3040   68.7210 C   0  0  0  0  0  0  0  0  0  0  0  0
    5.5440   70.7640   69.0360 C   0  0  0  0  0  0  0  0  0  0  0  0
    6.5140   70.8120   68.0440 C   0  0  0  0  0  0  0  0  0  0  0  0
    6.2110   70.4010   66.7400 C   0  0  0  0  0  0  0  0  0  0  0  0
    4.9310   69.9270   66.3820 C   0  0  0  0  0  0  0  0  0  0  0  0
    4.5900   69.4870   65.0050 C   0  0  0  0  0  0  0  0  0  0  0  0
    3.2990   69.0230   64.6930 C   0  0  0  0  0  0  0  0  0  0  0  0
    2.9560   68.6010   63.3960 C   0  0  0  0  0  0  0  0  0  0  0  0
    3.8990   68.6340   62.3760 C   0  0  0  0  0  0  0  0  0  0  0  0
    5.1820   69.0860   62.6510 C   0  0  0  0  0  0  0  0  0  0  0  0
    5.5200   69.5060   63.9440 C   0  0  0  0  0  0  0  0  0  0  0  0
    3.4952   70.2620   69.4997 H   0  0  0  0  0  0  0  0  0  0  0  0
    5.7805   71.0867   70.0607 H   0  0  0  0  0  0  0  0  0  0  0  0
    7.5247   71.1743   68.2832 H   0  0  0  0  0  0  0  0  0  0  0  0
    6.9956   70.4492   65.9705 H   0  0  0  0  0  0  0  0  0  0  0  0
    1.9368   68.2433   63.1881 H   0  0  0  0  0  0  0  0  0  0  0  0
    3.6313   68.3052   61.3610 H   0  0  0  0  0  0  0  0  0  0  0  0
    5.9362   69.1146   61.8508 H   0  0  0  0  0  0  0  0  0  0  0  0
    6.5426   69.8618   64.1383 H   0  0  0  0  0  0  0  0  0  0  0  0
  2  1  2  0
  3  2  1  0
  4  3  2  0
  5  3  1  0
  6  5  1  0
  7  6  2  0
  8  7  1  0
  9  8  2  0
 10  5  2  0
 10  9  1  0
 11 10  1  0
 12 11  2  0
 12  2  1  0
 13 12  1  0
 14 13  2  0
 15 14  1  0
 16 11  1  0
 16 15  2  0
  6 17  1  0
  7 18  1  0
  8 19  1  0
  9 20  1  0
 13 21  1  0
 14 22  1  0
 15 23  1  0
 16 24  1  0
M  END
>  <score>  (2) 
-10.861

$$$$
=
     RDKit          3D

 24 26  0  0  0  0  0  0  0  0999 V2000
    5.6410   69.4960   64.0050 O   0  0  0  0  0  0  0  0  0  0  0  0
    4.7840   69.4540   64.8790 C   0  0  0  0  0  0  0  0  0  0  0  0
    3.4010   68.9310   64.5590 C   0  0  0  0  0  0  0  0  0  0  0  0
    3.1360   68.5480   63.4270 O   0  0  0  0  0  0  0  0  0  0  0  0
    2.3920   68.8940   65.6350 C   0  0  0  0  0  0  0  0  0  0  0  0
    1.1130   68.4040   65.3170 C   0  0  0  0  0  0  0  0  0  0  0  0
    0.1230   68.3460   66.2910 C   0  0  0  0  0  0  0  0  0  0  0  0
    0.4100   68.7770   67.5780 C   0  0  0  0  0  0  0  0  0  0  0  0
    1.6860   69.2650   67.8920 C   0  0  0  0  0  0  0  0  0  0  0  0
    2.7170   69.3380   66.9310 C   0  0  0  0  0  0  0  0  0  0  0  0
    4.0740   69.8510   67.2430 C   0  0  0  0  0  0  0  0  0  0  0  0
    5.0720   69.9070   66.2520 C   0  0  0  0  0  0  0  0  0  0  0  0
    6.3640   70.3890   66.5280 C   0  0  0  0  0  0  0  0  0  0  0  0
    6.6910   70.8300   67.8040 C   0  0  0  0  0  0  0  0  0  0  0  0
    5.7300   70.7880   68.8040 C   0  0  0  0  0  0  0  0  0  0  0  0
    4.4430   70.3070   68.5260 C   0  0  0  0  0  0  0  0  0  0  0  0
    0.8950   68.0652   64.2934 H   0  0  0  0  0  0  0  0  0  0  0  0
   -0.8778   67.9623   66.0438 H   0  0  0  0  0  0  0  0  0  0  0  0
   -0.3671   68.7356   68.3554 H   0  0  0  0  0  0  0  0  0  0  0  0
    1.8901   69.6015   68.9192 H   0  0  0  0  0  0  0  0  0  0  0  0
    7.1197   70.4169   65.7292 H   0  0  0  0  0  0  0  0  0  0  0  0
    7.7011   71.2085   68.0194 H   0  0  0  0  0  0  0  0  0  0  0  0
    5.9789   71.1333   69.8183 H   0  0  0  0  0  0  0  0  0  0  0  0
    3.6970   70.2844   69.3340 H   0  0  0  0  0  0  0  0  0  0  0  0
  2  1  2  0
  3  2  1  0
  4  3  2  0
  5  3  1  0
  6  5  1  0
  7  6  2  0
  8  7  1  0
  9  8  2  0
 10  5  2  0
 10  9  1  0
 11 10  1  0
 12 11  2  0
 12  2  1  0
 13 12  1  0
 14 13  2  0
 15 14  1  0
 16 11  1  0
 16 15  2  0
  6 17  1  0
  7 18  1  0
  8 19  1  0
  9 20  1  0
 13 21  1  0
 14 22  1  0
 15 23  1  0
 16 24  1  0
M  END
>  <score>  (3) 
-10.406

$$$$
=
     RDKit          3D

 24 26  0  0  0  0  0  0  0  0999 V2000
    3.1280   68.3880   63.4870 O   0  0  0  0  0  0  0  0  0  0  0  0
    3.3960   68.8140   64.6030 C   0  0  0  0  0  0  0  0  0  0  0  0
    4.7860   69.3330   64.9020 C   0  0  0  0  0  0  0  0  0  0  0  0
    5.6430   69.3290   64.0280 O   0  0  0  0  0  0  0  0  0  0  0  0
    5.0770   69.8400   66.2570 C   0  0  0  0  0  0  0  0  0  0  0  0
    6.3750   70.3180   66.5130 C   0  0  0  0  0  0  0  0  0  0  0  0
    6.7050   70.8060   67.7710 C   0  0  0  0  0  0  0  0  0  0  0  0
    5.7430   70.8170   68.7700 C   0  0  0  0  0  0  0  0  0  0  0  0
    4.4510   70.3400   68.5120 C   0  0  0  0  0  0  0  0  0  0  0  0
    4.0770   69.8370   67.2480 C   0  0  0  0  0  0  0  0  0  0  0  0
    2.7140   69.3270   66.9540 C   0  0  0  0  0  0  0  0  0  0  0  0
    2.3860   68.8340   65.6770 C   0  0  0  0  0  0  0  0  0  0  0  0
    1.1010   68.3460   65.3790 C   0  0  0  0  0  0  0  0  0  0  0  0
    0.1100   68.3400   66.3520 C   0  0  0  0  0  0  0  0  0  0  0  0
    0.4010   68.8200   67.6210 C   0  0  0  0  0  0  0  0  0  0  0  0
    1.6820   69.3040   67.9160 C   0  0  0  0  0  0  0  0  0  0  0  0
    7.1312   70.3053   65.7143 H   0  0  0  0  0  0  0  0  0  0  0  0
    7.7195   71.1801   67.9729 H   0  0  0  0  0  0  0  0  0  0  0  0
    5.9954   71.2018   69.7691 H   0  0  0  0  0  0  0  0  0  0  0  0
    3.7050   70.3583   69.3202 H   0  0  0  0  0  0  0  0  0  0  0  0
    0.8798   67.9672   64.3702 H   0  0  0  0  0  0  0  0  0  0  0  0
   -0.8952   67.9587   66.1191 H   0  0  0  0  0  0  0  0  0  0  0  0
   -0.3773   68.8204   68.3984 H   0  0  0  0  0  0  0  0  0  0  0  0
    1.8899   69.6779   68.9294 H   0  0  0  0  0  0  0  0  0  0  0  0
  2  1  2  0
  3  2  1  0
  4  3  2  0
  5  3  1  0
  6  5  1  0
  7  6  2  0
  8  7  1  0
  9  8  2  0
 10  5  2  0
 10  9  1  0
 11 10  1  0
 12 11  2  0
 12  2  1  0
 13 12  1  0
 14 13  2  0
 15 14  1  0
 16 11  1  0
 16 15  2  0
  6 17  1  0
  7 18  1  0
  8 19  1  0
  9 20  1  0
 13 21  1  0
 14 22  1  0
 15 23  1  0
 16 24  1  0
M  END
>  <score>  (4) 
-10.33

$$$$
=
     RDKit          3D

 24 26  0  0  0  0  0  0  0  0999 V2000
    4.2420   70.1920   68.2760 O   0  0  0  0  0  0  0  0  0  0  0  0
    3.9660   69.8170   67.1440 C   0  0  0  0  0  0  0  0  0  0  0  0
    5.0040   69.8960   66.0460 C   0  0  0  0  0  0  0  0  0  0  0  0
    6.1210   70.3350   66.2870 O   0  0  0  0  0  0  0  0  0  0  0  0
    4.6400   69.4350   64.6920 C   0  0  0  0  0  0  0  0  0  0  0  0
    5.6200   69.5170   63.6860 C   0  0  0  0  0  0  0  0  0  0  0  0
    5.3320   69.0980   62.3930 C   0  0  0  0  0  0  0  0  0  0  0  0
    4.0700   68.5990   62.1060 C   0  0  0  0  0  0  0  0  0  0  0  0
    3.0960   68.5180   63.1100 C   0  0  0  0  0  0  0  0  0  0  0  0
    3.3500   68.9330   64.4340 C   0  0  0  0  0  0  0  0  0  0  0  0
    2.3330   68.8570   65.5120 C   0  0  0  0  0  0  0  0  0  0  0  0
    2.6300   69.2830   66.8200 C   0  0  0  0  0  0  0  0  0  0  0  0
    1.6800   69.2180   67.8550 C   0  0  0  0  0  0  0  0  0  0  0  0
    0.4060   68.7250   67.6070 C   0  0  0  0  0  0  0  0  0  0  0  0
    0.0800   68.2950   66.3290 C   0  0  0  0  0  0  0  0  0  0  0  0
    1.0290   68.3620   65.2990 C   0  0  0  0  0  0  0  0  0  0  0  0
    6.6178   69.9142   63.9239 H   0  0  0  0  0  0  0  0  0  0  0  0
    6.0969   69.1613   61.6050 H   0  0  0  0  0  0  0  0  0  0  0  0
    3.8327   68.2652   61.0851 H   0  0  0  0  0  0  0  0  0  0  0  0
    2.1026   68.1184   62.8579 H   0  0  0  0  0  0  0  0  0  0  0  0
    1.9476   69.5594   68.8659 H   0  0  0  0  0  0  0  0  0  0  0  0
   -0.3377   68.6758   68.4160 H   0  0  0  0  0  0  0  0  0  0  0  0
   -0.9259   67.9003   66.1231 H   0  0  0  0  0  0  0  0  0  0  0  0
    0.7479   68.0177   64.2928 H   0  0  0  0  0  0  0  0  0  0  0  0
  2  1  2  0
  3  2  1  0
  4  3  2  0
  5  3  1  0
  6  5  1  0
  7  6  2  0
  8  7  1  0
  9  8  2  0
 10  5  2  0
 10  9  1  0
 11 10  1  0
 12 11  2  0
 12  2  1  0
 13 12  1  0
 14 13  2  0
 15 14  1  0
 16 11  1  0
 16 15  2  0
  6 17  1  0
  7 18  1  0
  8 19  1  0
  9 20  1  0
 13 21  1  0
 14 22  1  0
 15 23  1  0
 16 24  1  0
M  END
>  <score>  (5) 
-9.737

$$$$
=
     RDKit          3D

 24 26  0  0  0  0  0  0  0  0999 V2000
   -0.2290   68.3290   62.7350 O   0  0  0  0  0  0  0  0  0  0  0  0
    0.7240   68.5450   63.4730 C   0  0  0  0  0  0  0  0  0  0  0  0
    2.1140   68.6890   62.8930 C   0  0  0  0  0  0  0  0  0  0  0  0
    2.2880   68.5910   61.6850 O   0  0  0  0  0  0  0  0  0  0  0  0
    3.2400   68.9500   63.8090 C   0  0  0  0  0  0  0  0  0  0  0  0
    4.5240   69.0810   63.2490 C   0  0  0  0  0  0  0  0  0  0  0  0
    5.6220   69.3260   64.0650 C   0  0  0  0  0  0  0  0  0  0  0  0
    5.4380   69.4400   65.4350 C   0  0  0  0  0  0  0  0  0  0  0  0
    4.1590   69.3090   65.9900 C   0  0  0  0  0  0  0  0  0  0  0  0
    3.0200   69.0600   65.1950 C   0  0  0  0  0  0  0  0  0  0  0  0
    1.6560   68.9180   65.7630 C   0  0  0  0  0  0  0  0  0  0  0  0
    0.5480   68.6690   64.9320 C   0  0  0  0  0  0  0  0  0  0  0  0
   -0.7520   68.5320   65.4500 C   0  0  0  0  0  0  0  0  0  0  0  0
   -0.9770   68.6390   66.8160 C   0  0  0  0  0  0  0  0  0  0  0  0
    0.0940   68.8840   67.6640 C   0  0  0  0  0  0  0  0  0  0  0  0
    1.3880   69.0200   67.1450 C   0  0  0  0  0  0  0  0  0  0  0  0
    4.6593   68.9892   62.1612 H   0  0  0  0  0  0  0  0  0  0  0  0
    6.6266   69.4284   63.6288 H   0  0  0  0  0  0  0  0  0  0  0  0
    6.3010   69.6343   66.0888 H   0  0  0  0  0  0  0  0  0  0  0  0
    4.0385   69.4031   67.0793 H   0  0  0  0  0  0  0  0  0  0  0  0
   -1.5947   68.3391   64.7699 H   0  0  0  0  0  0  0  0  0  0  0  0
   -1.9936   68.5307   67.2219 H   0  0  0  0  0  0  0  0  0  0  0  0
   -0.0739   68.9717   68.7476 H   0  0  0  0  0  0  0  0  0  0  0  0
    2.2216   69.2124   67.8364 H   0  0  0  0  0  0  0  0  0  0  0  0
  2  1  2  0
  3  2  1  0
  4  3  2  0
  5  3  1  0
  6  5  1  0
  7  6  2  0
  8  7  1  0
  9  8  2  0
 10  5  2  0
 10  9  1  0
 11 10  1  0
 12 11  2  0
 12  2  1  0
 13 12  1  0
 14 13  2  0
 15 14  1  0
 16 11  1  0
 16 15  2  0
  6 17  1  0
  7 18  1  0
  8 19  1  0
  9 20  1  0
 13 21  1  0
 14 22  1  0
 15 23  1  0
 16 24  1  0
M  END
>  <score>  (6) 
-9.687

$$$$
=
     RDKit          3D

 24 26  0  0  0  0  0  0  0  0999 V2000
   -0.1320   68.7860   66.6200 O   0  0  0  0  0  0  0  0  0  0  0  0
    1.0600   68.9660   66.4080 C   0  0  0  0  0  0  0  0  0  0  0  0
    1.9590   69.4640   67.5180 C   0  0  0  0  0  0  0  0  0  0  0  0
    1.4970   69.6870   68.6300 O   0  0  0  0  0  0  0  0  0  0  0  0
    3.3920   69.6710   67.2310 C   0  0  0  0  0  0  0  0  0  0  0  0
    4.2100   70.1350   68.2770 C   0  0  0  0  0  0  0  0  0  0  0  0
    5.5660   70.3480   68.0630 C   0  0  0  0  0  0  0  0  0  0  0  0
    6.1030   70.0990   66.8080 C   0  0  0  0  0  0  0  0  0  0  0  0
    5.2860   69.6380   65.7680 C   0  0  0  0  0  0  0  0  0  0  0  0
    3.9050   69.4090   65.9470 C   0  0  0  0  0  0  0  0  0  0  0  0
    3.0220   68.9200   64.8580 C   0  0  0  0  0  0  0  0  0  0  0  0
    1.6490   68.7070   65.0810 C   0  0  0  0  0  0  0  0  0  0  0  0
    0.7960   68.2440   64.0640 C   0  0  0  0  0  0  0  0  0  0  0  0
    1.2950   67.9840   62.7940 C   0  0  0  0  0  0  0  0  0  0  0  0
    2.6450   68.1830   62.5410 C   0  0  0  0  0  0  0  0  0  0  0  0
    3.4920   68.6450   63.5570 C   0  0  0  0  0  0  0  0  0  0  0  0
    3.7744   70.3299   69.2681 H   0  0  0  0  0  0  0  0  0  0  0  0
    6.2073   70.7103   68.8800 H   0  0  0  0  0  0  0  0  0  0  0  0
    7.1757   70.2645   66.6290 H   0  0  0  0  0  0  0  0  0  0  0  0
    5.7344   69.4486   64.7816 H   0  0  0  0  0  0  0  0  0  0  0  0
   -0.2721   68.0868   64.2750 H   0  0  0  0  0  0  0  0  0  0  0  0
    0.6273   67.6242   61.9973 H   0  0  0  0  0  0  0  0  0  0  0  0
    3.0513   67.9774   61.5397 H   0  0  0  0  0  0  0  0  0  0  0  0
    4.5579   68.7982   63.3327 H   0  0  0  0  0  0  0  0  0  0  0  0
  2  1  2  0
  3  2  1  0
  4  3  2  0
  5  3  1  0
  6  5  1  0
  7  6  2  0
  8  7  1  0
  9  8  2  0
 10  5  2  0
 10  9  1  0
 11 10  1  0
 12 11  2  0
 12  2  1  0
 13 12  1  0
 14 13  2  0
 15 14  1  0
 16 11  1  0
 16 15  2  0
  6 17  1  0
  7 18  1  0
  8 19  1  0
  9 20  1  0
 13 21  1  0
 14 22  1  0
 15 23  1  0
 16 24  1  0
M  END
>  <score>  (7) 
-9.305

$$$$
=
     RDKit          3D

 24 26  0  0  0  0  0  0  0  0999 V2000
    3.9350   57.8320   70.4500 O   0  0  0  0  0  0  0  0  0  0  0  0
    3.3980   58.8840   70.7720 C   0  0  0  0  0  0  0  0  0  0  0  0
    3.7790   60.1720   70.0750 C   0  0  0  0  0  0  0  0  0  0  0  0
    4.6230   60.1640   69.1890 O   0  0  0  0  0  0  0  0  0  0  0  0
    3.1130   61.4230   70.4860 C   0  0  0  0  0  0  0  0  0  0  0  0
    3.4820   62.6090   69.8250 C   0  0  0  0  0  0  0  0  0  0  0  0
    2.8880   63.8170   70.1710 C   0  0  0  0  0  0  0  0  0  0  0  0
    1.9300   63.8400   71.1740 C   0  0  0  0  0  0  0  0  0  0  0  0
    1.5640   62.6570   71.8300 C   0  0  0  0  0  0  0  0  0  0  0  0
    2.1440   61.4120   71.5060 C   0  0  0  0  0  0  0  0  0  0  0  0
    1.7710   60.1480   72.1900 C   0  0  0  0  0  0  0  0  0  0  0  0
    2.3770   58.9280   71.8340 C   0  0  0  0  0  0  0  0  0  0  0  0
    2.0370   57.7190   72.4690 C   0  0  0  0  0  0  0  0  0  0  0  0
    1.0820   57.7010   73.4770 C   0  0  0  0  0  0  0  0  0  0  0  0
    0.4660   58.8860   73.8510 C   0  0  0  0  0  0  0  0  0  0  0  0
    0.8070   60.0890   73.2170 C   0  0  0  0  0  0  0  0  0  0  0  0
    4.2433   62.5801   69.0316 H   0  0  0  0  0  0  0  0  0  0  0  0
    3.1746   64.7452   69.6549 H   0  0  0  0  0  0  0  0  0  0  0  0
    1.4553   64.7915   71.4558 H   0  0  0  0  0  0  0  0  0  0  0  0
    0.8014   62.7002   72.6216 H   0  0  0  0  0  0  0  0  0  0  0  0
    2.5301   56.7838   72.1654 H   0  0  0  0  0  0  0  0  0  0  0  0
    0.8167   56.7562   73.9739 H   0  0  0  0  0  0  0  0  0  0  0  0
   -0.2925   58.8819   74.6476 H   0  0  0  0  0  0  0  0  0  0  0  0
    0.3063   61.0167   73.5310 H   0  0  0  0  0  0  0  0  0  0  0  0
  2  1  2  0
  3  2  1  0
  4  3  2  0
  5  3  1  0
  6  5  1  0
  7  6  2  0
  8  7  1  0
  9  8  2  0
 10  5  2  0
 10  9  1  0
 11 10  1  0
 12 11  2  0
 12  2  1  0
 13 12  1  0
 14 13  2  0
 15 14  1  0
 16 11  1  0
 16 15  2  0
  6 17  1  0
  7 18  1  0
  8 19  1  0
  9 20  1  0
 13 21  1  0
 14 22  1  0
 15 23  1  0
 16 24  1  0
M  END
>  <score>  (8) 
-8.309

$$$$
=
     RDKit          3D

 24 26  0  0  0  0  0  0  0  0999 V2000
    4.6210   60.2020   69.2080 O   0  0  0  0  0  0  0  0  0  0  0  0
    3.7580   60.1930   70.0760 C   0  0  0  0  0  0  0  0  0  0  0  0
    3.3840   58.8950   70.7570 C   0  0  0  0  0  0  0  0  0  0  0  0
    3.9430   57.8520   70.4420 O   0  0  0  0  0  0  0  0  0  0  0  0
    2.3400   58.9170   71.8000 C   0  0  0  0  0  0  0  0  0  0  0  0
    2.0080   57.6990   72.4200 C   0  0  0  0  0  0  0  0  0  0  0  0
    1.0320   57.6600   73.4090 C   0  0  0  0  0  0  0  0  0  0  0  0
    0.3900   58.8340   73.7760 C   0  0  0  0  0  0  0  0  0  0  0  0
    0.7230   60.0460   73.1560 C   0  0  0  0  0  0  0  0  0  0  0  0
    1.7090   60.1250   72.1490 C   0  0  0  0  0  0  0  0  0  0  0  0
    2.0760   61.3980   71.4800 C   0  0  0  0  0  0  0  0  0  0  0  0
    3.0660   61.4300   70.4800 C   0  0  0  0  0  0  0  0  0  0  0  0
    3.4290   62.6260   69.8340 C   0  0  0  0  0  0  0  0  0  0  0  0
    2.8100   63.8220   70.1730 C   0  0  0  0  0  0  0  0  0  0  0  0
    1.8300   63.8250   71.1560 C   0  0  0  0  0  0  0  0  0  0  0  0
    1.4700   62.6320   71.7970 C   0  0  0  0  0  0  0  0  0  0  0  0
    2.5226   56.7739   72.1212 H   0  0  0  0  0  0  0  0  0  0  0  0
    0.7714   56.7085   73.8955 H   0  0  0  0  0  0  0  0  0  0  0  0
   -0.3840   58.8134   74.5573 H   0  0  0  0  0  0  0  0  0  0  0  0
    0.2001   60.9636   73.4635 H   0  0  0  0  0  0  0  0  0  0  0  0
    4.2070   62.6137   69.0565 H   0  0  0  0  0  0  0  0  0  0  0  0
    3.0933   64.7572   69.6678 H   0  0  0  0  0  0  0  0  0  0  0  0
    1.3342   64.7671   71.4328 H   0  0  0  0  0  0  0  0  0  0  0  0
    0.6900   62.6585   72.5721 H   0  0  0  0  0  0  0  0  0  0  0  0
  2  1  2  0
  3  2  1  0
  4  3  2  0
  5  3  1  0
  6  5  1  0
  7  6  2  0
  8  7  1  0
  9  8  2  0
 10  5  2  0
 10  9  1  0
 11 10  1  0
 12 11  2  0
 12  2  1  0
 13 12  1  0
 14 13  2  0
 15 14  1  0
 16 11  1  0
 16 15  2  0
  6 17  1  0
  7 18  1  0
  8 19  1  0
  9 20  1  0
 13 21  1  0
 14 22  1  0
 15 23  1  0
 16 24  1  0
M  END
>  <score>  (9) 
-8.304

$$$$
