=
     RDKit          3D

 52 55  0  0  0  0  0  0  0  0999 V2000
    3.4320   63.4550   68.2450 O   0  0  0  0  0  0  0  0  0  0  0  0
    3.2420   62.5600   69.0670 C   0  0  0  0  0  0  0  0  0  0  0  0
    4.1290   61.3420   69.1390 C   0  0  0  0  0  0  0  0  0  0  0  0
    3.5010   60.2050   69.9440 C   0  0  0  0  0  0  0  0  0  0  0  0
    2.9180   60.6650   71.3070 C   0  0  1  0  0  0  0  0  0  0  0  0
    1.9500   61.8230   71.0400 C   0  0  0  0  0  0  0  0  0  0  0  0
    2.1180   62.6880   70.0260 C   0  0  0  0  0  0  0  0  0  0  0  0
    0.7000   61.9110   71.8890 C   0  0  0  0  0  0  0  0  0  0  0  0
    0.8600   61.3560   73.3000 C   0  0  0  0  0  0  0  0  0  0  0  0
    1.5210   59.9650   73.3640 C   0  0  2  0  0  0  0  0  0  0  0  0
    2.1020   59.5130   71.9840 C   0  0  2  0  0  0  0  0  0  0  0  0
    2.8340   58.1540   72.1060 C   0  0  0  0  0  0  0  0  0  0  0  0
    1.9390   57.0660   72.7370 C   0  0  0  0  0  0  0  0  0  0  0  0
    1.3490   57.5120   74.0880 C   0  0  1  0  0  0  0  0  0  0  0  0
    0.5960   58.8510   73.8760 C   0  0  1  0  0  0  0  0  0  0  0  0
   -0.1450   59.0450   75.1950 C   0  0  0  0  0  0  0  0  0  0  0  0
   -0.5260   57.6200   75.6410 C   0  0  0  0  0  0  0  0  0  0  0  0
    0.2070   56.6360   74.6890 C   0  0  1  0  0  0  0  0  0  0  0  0
   -0.7700   56.0370   73.6680 C   0  0  0  0  0  0  0  0  0  0  0  0
    2.5150   57.6060   75.1170 C   0  0  0  0  0  0  0  0  0  0  0  0
    4.0740   61.1530   72.2110 C   0  0  0  0  0  0  0  0  0  0  0  0
    0.7370   55.5430   75.4360 O   0  0  0  0  0  0  0  0  0  0  0  0
    4.3215   60.9853   68.1164 H   0  0  0  0  0  0  0  0  0  0  0  0
    5.0589   61.6364   69.6475 H   0  0  0  0  0  0  0  0  0  0  0  0
    2.6886   59.7631   69.3484 H   0  0  0  0  0  0  0  0  0  0  0  0
    4.2994   59.4798   70.1599 H   0  0  0  0  0  0  0  0  0  0  0  0
    1.4021   63.5141   69.9036 H   0  0  0  0  0  0  0  0  0  0  0  0
    0.4094   62.9691   71.9658 H   0  0  0  0  0  0  0  0  0  0  0  0
   -0.0627   61.2935   71.3920 H   0  0  0  0  0  0  0  0  0  0  0  0
    1.4786   62.0582   73.8782 H   0  0  0  0  0  0  0  0  0  0  0  0
   -0.1543   61.2416   73.7101 H   0  0  0  0  0  0  0  0  0  0  0  0
    2.3341   60.1029   74.0919 H   0  0  0  0  0  0  0  0  0  0  0  0
    1.2769   59.3180   71.2832 H   0  0  0  0  0  0  0  0  0  0  0  0
    3.1387   57.8240   71.1019 H   0  0  0  0  0  0  0  0  0  0  0  0
    3.7059   58.2969   72.7613 H   0  0  0  0  0  0  0  0  0  0  0  0
    1.1130   56.8417   72.0461 H   0  0  0  0  0  0  0  0  0  0  0  0
    2.5620   56.1774   72.9165 H   0  0  0  0  0  0  0  0  0  0  0  0
   -0.1403   58.8643   73.0589 H   0  0  0  0  0  0  0  0  0  0  0  0
    0.5075   59.5235   75.9401 H   0  0  0  0  0  0  0  0  0  0  0  0
   -1.0243   59.6971   75.0871 H   0  0  0  0  0  0  0  0  0  0  0  0
   -0.2053   57.4506   76.6795 H   0  0  0  0  0  0  0  0  0  0  0  0
   -1.6151   57.4722   75.5961 H   0  0  0  0  0  0  0  0  0  0  0  0
   -1.5915   55.5333   74.1984 H   0  0  0  0  0  0  0  0  0  0  0  0
   -1.1788   56.8399   73.0369 H   0  0  0  0  0  0  0  0  0  0  0  0
   -0.2399   55.3085   73.0369 H   0  0  0  0  0  0  0  0  0  0  0  0
    2.1067   57.5731   76.1379 H   0  0  0  0  0  0  0  0  0  0  0  0
    3.2030   56.7604   74.9698 H   0  0  0  0  0  0  0  0  0  0  0  0
    3.0586   58.5509   74.9698 H   0  0  0  0  0  0  0  0  0  0  0  0
    3.7896   61.0329   73.2668 H   0  0  0  0  0  0  0  0  0  0  0  0
    4.9766   60.5591   72.0046 H   0  0  0  0  0  0  0  0  0  0  0  0
    4.2780   62.2140   72.0046 H   0  0  0  0  0  0  0  0  0  0  0  0
    0.6463   55.7300   76.4039 H   0  0  0  0  0  0  0  0  0  0  0  0
  2  1  2  0
  3  2  1  0
  4  3  1  0
  5  4  1  0
  6  5  1  0
  7  2  1  0
  7  6  2  0
  8  6  1  0
  9  8  1  0
 10  9  1  0
 11 10  1  0
 11  5  1  0
 12 11  1  0
 13 12  1  0
 14 13  1  0
 15 14  1  0
 15 10  1  0
 16 15  1  0
 17 16  1  0
 18 17  1  0
 18 14  1  0
 19 18  1  0
 14 20  1  1
  5 21  1  1
 18 22  1  1
  3 23  1  0
  3 24  1  0
  4 25  1  0
  4 26  1  0
  7 27  1  0
  8 28  1  0
  8 29  1  0
  9 30  1  0
  9 31  1  0
 10 32  1  1
 11 33  1  6
 12 34  1  0
 12 35  1  0
 13 36  1  0
 13 37  1  0
 15 38  1  6
 16 39  1  0
 16 40  1  0
 17 41  1  0
 17 42  1  0
 19 43  1  0
 19 44  1  0
 19 45  1  0
 20 46  1  0
 20 47  1  0
 20 48  1  0
 21 49  1  0
 21 50  1  0
 21 51  1  0
 22 52  1  0
M  END
>  <score>  (1) 
-8.629

$$$$
=
     RDKit          3D

 52 55  0  0  0  0  0  0  0  0999 V2000
    0.6140   54.2790   74.1690 O   0  0  0  0  0  0  0  0  0  0  0  0
    0.5600   55.4980   74.0180 C   0  0  0  0  0  0  0  0  0  0  0  0
   -0.5220   56.3340   74.6570 C   0  0  0  0  0  0  0  0  0  0  0  0
   -0.6280   57.7280   74.0410 C   0  0  0  0  0  0  0  0  0  0  0  0
    0.7410   58.4420   73.8930 C   0  0  1  0  0  0  0  0  0  0  0  0
    1.6800   57.5100   73.1200 C   0  0  0  0  0  0  0  0  0  0  0  0
    1.5960   56.1700   73.1980 C   0  0  0  0  0  0  0  0  0  0  0  0
    2.6550   58.1350   72.1450 C   0  0  0  0  0  0  0  0  0  0  0  0
    3.1150   59.5370   72.5320 C   0  0  0  0  0  0  0  0  0  0  0  0
    1.9720   60.4950   72.9210 C   0  0  2  0  0  0  0  0  0  0  0  0
    0.5980   59.7630   73.0640 C   0  0  2  0  0  0  0  0  0  0  0  0
   -0.5060   60.7380   73.5410 C   0  0  0  0  0  0  0  0  0  0  0  0
   -0.6100   61.9850   72.6380 C   0  0  0  0  0  0  0  0  0  0  0  0
    0.7440   62.7000   72.4780 C   0  0  1  0  0  0  0  0  0  0  0  0
    1.7830   61.6740   71.9560 C   0  0  1  0  0  0  0  0  0  0  0  0
    2.9830   62.5450   71.5990 C   0  0  0  0  0  0  0  0  0  0  0  0
    2.3680   63.8590   71.0790 C   0  0  0  0  0  0  0  0  0  0  0  0
    0.8440   63.7940   71.3710 C   0  0  1  0  0  0  0  0  0  0  0  0
    0.0570   63.5050   70.0860 C   0  0  0  0  0  0  0  0  0  0  0  0
    1.1230   63.3300   73.8530 C   0  0  0  0  0  0  0  0  0  0  0  0
    1.3230   58.7130   75.3000 C   0  0  0  0  0  0  0  0  0  0  0  0
    0.3880   65.0570   71.8530 O   0  0  0  0  0  0  0  0  0  0  0  0
   -1.4858   55.8189   74.5311 H   0  0  0  0  0  0  0  0  0  0  0  0
   -0.2639   56.4578   75.7191 H   0  0  0  0  0  0  0  0  0  0  0  0
   -1.0822   57.6348   73.0435 H   0  0  0  0  0  0  0  0  0  0  0  0
   -1.2404   58.3379   74.7215 H   0  0  0  0  0  0  0  0  0  0  0  0
    2.3161   55.5556   72.6377 H   0  0  0  0  0  0  0  0  0  0  0  0
    3.5414   57.4868   72.0804 H   0  0  0  0  0  0  0  0  0  0  0  0
    2.1252   58.2300   71.1857 H   0  0  0  0  0  0  0  0  0  0  0  0
    3.7989   59.4508   73.3892 H   0  0  0  0  0  0  0  0  0  0  0  0
    3.5972   59.9671   71.6418 H   0  0  0  0  0  0  0  0  0  0  0  0
    2.2933   60.8921   73.8952 H   0  0  0  0  0  0  0  0  0  0  0  0
    0.2569   59.4253   72.0742 H   0  0  0  0  0  0  0  0  0  0  0  0
   -1.4720   60.2119   73.5315 H   0  0  0  0  0  0  0  0  0  0  0  0
   -0.2447   61.0752   74.5549 H   0  0  0  0  0  0  0  0  0  0  0  0
   -0.9666   61.6747   71.6447 H   0  0  0  0  0  0  0  0  0  0  0  0
   -1.3101   62.6886   73.1121 H   0  0  0  0  0  0  0  0  0  0  0  0
    1.4894   61.1053   71.0614 H   0  0  0  0  0  0  0  0  0  0  0  0
    3.6051   62.7319   72.4867 H   0  0  0  0  0  0  0  0  0  0  0  0
    3.6384   62.0680   70.8554 H   0  0  0  0  0  0  0  0  0  0  0  0
    2.8161   64.7179   71.5999 H   0  0  0  0  0  0  0  0  0  0  0  0
    2.5565   63.9814   70.0022 H   0  0  0  0  0  0  0  0  0  0  0  0
   -0.9464   63.1365   70.3456 H   0  0  0  0  0  0  0  0  0  0  0  0
   -0.0330   64.4287   69.4956 H   0  0  0  0  0  0  0  0  0  0  0  0
    0.5862   62.7425   69.4956 H   0  0  0  0  0  0  0  0  0  0  0  0
    0.7407   62.6945   74.6654 H   0  0  0  0  0  0  0  0  0  0  0  0
    2.2175   63.4070   73.9318 H   0  0  0  0  0  0  0  0  0  0  0  0
    0.6782   64.3330   73.9318 H   0  0  0  0  0  0  0  0  0  0  0  0
    0.6057   58.3790   76.0641 H   0  0  0  0  0  0  0  0  0  0  0  0
    2.2678   58.1622   75.4183 H   0  0  0  0  0  0  0  0  0  0  0  0
    1.5095   59.7906   75.4183 H   0  0  0  0  0  0  0  0  0  0  0  0
    0.3896   65.0525   72.8430 H   0  0  0  0  0  0  0  0  0  0  0  0
  2  1  2  0
  3  2  1  0
  4  3  1  0
  5  4  1  0
  6  5  1  0
  7  2  1  0
  7  6  2  0
  8  6  1  0
  9  8  1  0
 10  9  1  0
 11 10  1  0
 11  5  1  0
 12 11  1  0
 13 12  1  0
 14 13  1  0
 15 14  1  0
 15 10  1  0
 16 15  1  0
 17 16  1  0
 18 17  1  0
 18 14  1  0
 19 18  1  0
 14 20  1  1
  5 21  1  1
 18 22  1  1
  3 23  1  0
  3 24  1  0
  4 25  1  0
  4 26  1  0
  7 27  1  0
  8 28  1  0
  8 29  1  0
  9 30  1  0
  9 31  1  0
 10 32  1  1
 11 33  1  6
 12 34  1  0
 12 35  1  0
 13 36  1  0
 13 37  1  0
 15 38  1  6
 16 39  1  0
 16 40  1  0
 17 41  1  0
 17 42  1  0
 19 43  1  0
 19 44  1  0
 19 45  1  0
 20 46  1  0
 20 47  1  0
 20 48  1  0
 21 49  1  0
 21 50  1  0
 21 51  1  0
 22 52  1  0
M  END
>  <score>  (2) 
-8.606

$$$$
=
     RDKit          3D

 52 55  0  0  0  0  0  0  0  0999 V2000
   -2.4450   55.8660   75.3540 O   0  0  0  0  0  0  0  0  0  0  0  0
   -1.7570   56.7780   74.8970 C   0  0  0  0  0  0  0  0  0  0  0  0
   -2.1140   58.2290   75.1080 C   0  0  0  0  0  0  0  0  0  0  0  0
   -1.3680   59.1610   74.1540 C   0  0  0  0  0  0  0  0  0  0  0  0
    0.1540   58.8720   74.0760 C   0  0  1  0  0  0  0  0  0  0  0  0
    0.3370   57.3890   73.7370 C   0  0  0  0  0  0  0  0  0  0  0  0
   -0.5330   56.4430   74.1310 C   0  0  0  0  0  0  0  0  0  0  0  0
    1.4830   57.0070   72.8250 C   0  0  0  0  0  0  0  0  0  0  0  0
    2.6960   57.9250   72.9240 C   0  0  0  0  0  0  0  0  0  0  0  0
    2.3610   59.4290   72.8550 C   0  0  2  0  0  0  0  0  0  0  0  0
    0.8240   59.7050   72.9320 C   0  0  2  0  0  0  0  0  0  0  0  0
    0.5320   61.2250   72.9490 C   0  0  0  0  0  0  0  0  0  0  0  0
    1.1890   61.9570   71.7590 C   0  0  0  0  0  0  0  0  0  0  0  0
    2.7000   61.6740   71.6670 C   0  0  1  0  0  0  0  0  0  0  0  0
    2.9090   60.1390   71.6090 C   0  0  1  0  0  0  0  0  0  0  0  0
    4.3880   60.0020   71.2620 C   0  0  0  0  0  0  0  0  0  0  0  0
    4.6810   61.1950   70.3310 C   0  0  0  0  0  0  0  0  0  0  0  0
    3.4260   62.1100   70.3570 C   0  0  1  0  0  0  0  0  0  0  0  0
    2.6100   61.9510   69.0680 C   0  0  0  0  0  0  0  0  0  0  0  0
    3.3940   62.3540   72.8860 C   0  0  0  0  0  0  0  0  0  0  0  0
    0.7950   59.1730   75.4510 C   0  0  0  0  0  0  0  0  0  0  0  0
    3.8240   63.4780   70.4220 O   0  0  0  0  0  0  0  0  0  0  0  0
   -3.1953   58.3529   74.9483 H   0  0  0  0  0  0  0  0  0  0  0  0
   -1.8227   58.4986   76.1339 H   0  0  0  0  0  0  0  0  0  0  0  0
   -1.7969   59.0460   73.1476 H   0  0  0  0  0  0  0  0  0  0  0  0
   -1.4851   60.1839   74.5412 H   0  0  0  0  0  0  0  0  0  0  0  0
   -0.3311   55.3917   73.8781 H   0  0  0  0  0  0  0  0  0  0  0  0
    1.8018   55.9859   73.0815 H   0  0  0  0  0  0  0  0  0  0  0  0
    1.1073   57.0913   71.7946 H   0  0  0  0  0  0  0  0  0  0  0  0
    3.2000   57.7279   73.8817 H   0  0  0  0  0  0  0  0  0  0  0  0
    3.3307   57.7034   72.0534 H   0  0  0  0  0  0  0  0  0  0  0  0
    2.8654   59.8436   73.7402 H   0  0  0  0  0  0  0  0  0  0  0  0
    0.3381   59.3425   72.0141 H   0  0  0  0  0  0  0  0  0  0  0  0
   -0.5564   61.3775   72.9018 H   0  0  0  0  0  0  0  0  0  0  0  0
    0.9539   61.6402   73.8762 H   0  0  0  0  0  0  0  0  0  0  0  0
    0.7083   61.6226   70.8278 H   0  0  0  0  0  0  0  0  0  0  0  0
    1.0557   63.0382   71.9113 H   0  0  0  0  0  0  0  0  0  0  0  0
    2.3236   59.6026   70.8477 H   0  0  0  0  0  0  0  0  0  0  0  0
    5.0066   60.0569   72.1699 H   0  0  0  0  0  0  0  0  0  0  0  0
    4.6175   59.0364   70.7876 H   0  0  0  0  0  0  0  0  0  0  0  0
    5.5600   61.7490   70.6921 H   0  0  0  0  0  0  0  0  0  0  0  0
    4.8954   60.8515   69.3082 H   0  0  0  0  0  0  0  0  0  0  0  0
    1.5595   61.7463   69.3220 H   0  0  0  0  0  0  0  0  0  0  0  0
    2.6709   62.8779   68.4788 H   0  0  0  0  0  0  0  0  0  0  0  0
    3.0144   61.1148   68.4788 H   0  0  0  0  0  0  0  0  0  0  0  0
    2.9780   61.9464   73.8191 H   0  0  0  0  0  0  0  0  0  0  0  0
    4.4755   62.1562   72.8495 H   0  0  0  0  0  0  0  0  0  0  0  0
    3.2183   63.4393   72.8495 H   0  0  0  0  0  0  0  0  0  0  0  0
    0.1124   58.8525   76.2518 H   0  0  0  0  0  0  0  0  0  0  0  0
    1.7460   58.6273   75.5396 H   0  0  0  0  0  0  0  0  0  0  0  0
    0.9825   60.2533   75.5396 H   0  0  0  0  0  0  0  0  0  0  0  0
    3.9042   63.7537   71.3695 H   0  0  0  0  0  0  0  0  0  0  0  0
  2  1  2  0
  3  2  1  0
  4  3  1  0
  5  4  1  0
  6  5  1  0
  7  2  1  0
  7  6  2  0
  8  6  1  0
  9  8  1  0
 10  9  1  0
 11 10  1  0
 11  5  1  0
 12 11  1  0
 13 12  1  0
 14 13  1  0
 15 14  1  0
 15 10  1  0
 16 15  1  0
 17 16  1  0
 18 17  1  0
 18 14  1  0
 19 18  1  0
 14 20  1  1
  5 21  1  1
 18 22  1  1
  3 23  1  0
  3 24  1  0
  4 25  1  0
  4 26  1  0
  7 27  1  0
  8 28  1  0
  8 29  1  0
  9 30  1  0
  9 31  1  0
 10 32  1  1
 11 33  1  6
 12 34  1  0
 12 35  1  0
 13 36  1  0
 13 37  1  0
 15 38  1  6
 16 39  1  0
 16 40  1  0
 17 41  1  0
 17 42  1  0
 19 43  1  0
 19 44  1  0
 19 45  1  0
 20 46  1  0
 20 47  1  0
 20 48  1  0
 21 49  1  0
 21 50  1  0
 21 51  1  0
 22 52  1  0
M  END
>  <score>  (3) 
-8.492

$$$$
=
     RDKit          3D

 52 55  0  0  0  0  0  0  0  0999 V2000
    3.8200   63.1650   67.9130 O   0  0  0  0  0  0  0  0  0  0  0  0
    3.4540   62.5140   68.8900 C   0  0  0  0  0  0  0  0  0  0  0  0
    3.8750   61.0790   69.0960 C   0  0  0  0  0  0  0  0  0  0  0  0
    3.0170   60.3580   70.1340 C   0  0  0  0  0  0  0  0  0  0  0  0
    2.8210   61.1720   71.4410 C   0  0  1  0  0  0  0  0  0  0  0  0
    2.2770   62.5530   71.0620 C   0  0  0  0  0  0  0  0  0  0  0  0
    2.5860   63.1600   69.9030 C   0  0  0  0  0  0  0  0  0  0  0  0
    1.2620   63.1930   71.9850 C   0  0  0  0  0  0  0  0  0  0  0  0
    1.4200   62.8080   73.4530 C   0  0  0  0  0  0  0  0  0  0  0  0
    1.5710   61.2940   73.6980 C   0  0  2  0  0  0  0  0  0  0  0  0
    1.7650   60.4870   72.3730 C   0  0  2  0  0  0  0  0  0  0  0  0
    2.0010   58.9850   72.6650 C   0  0  0  0  0  0  0  0  0  0  0  0
    0.8870   58.3820   73.5480 C   0  0  0  0  0  0  0  0  0  0  0  0
    0.6780   59.1830   74.8460 C   0  0  1  0  0  0  0  0  0  0  0  0
    0.4040   60.6620   74.4710 C   0  0  1  0  0  0  0  0  0  0  0  0
   -0.0360   61.2800   75.7940 C   0  0  0  0  0  0  0  0  0  0  0  0
   -0.8130   60.1570   76.5090 C   0  0  0  0  0  0  0  0  0  0  0  0
   -0.5980   58.8600   75.6830 C   0  0  1  0  0  0  0  0  0  0  0  0
   -1.8520   58.5220   74.8670 C   0  0  0  0  0  0  0  0  0  0  0  0
    1.9390   58.9880   75.7420 C   0  0  0  0  0  0  0  0  0  0  0  0
    4.1880   61.3280   72.1480 C   0  0  0  0  0  0  0  0  0  0  0  0
   -0.3720   57.7580   76.5600 O   0  0  0  0  0  0  0  0  0  0  0  0
    3.7904   60.5460   68.1375 H   0  0  0  0  0  0  0  0  0  0  0  0
    4.9107   61.0857   69.4666 H   0  0  0  0  0  0  0  0  0  0  0  0
    2.0284   60.1610   69.6938 H   0  0  0  0  0  0  0  0  0  0  0  0
    3.5429   59.4303   70.4038 H   0  0  0  0  0  0  0  0  0  0  0  0
    2.1836   64.1636   69.7009 H   0  0  0  0  0  0  0  0  0  0  0  0
    1.3614   64.2854   71.9024 H   0  0  0  0  0  0  0  0  0  0  0  0
    0.2735   62.8293   71.6679 H   0  0  0  0  0  0  0  0  0  0  0  0
    2.3149   63.3118   73.8471 H   0  0  0  0  0  0  0  0  0  0  0  0
    0.4958   63.1192   73.9619 H   0  0  0  0  0  0  0  0  0  0  0  0
    2.4765   61.2264   74.3189 H   0  0  0  0  0  0  0  0  0  0  0  0
    0.8335   60.5091   71.7883 H   0  0  0  0  0  0  0  0  0  0  0  0
    2.0316   58.4388   71.7107 H   0  0  0  0  0  0  0  0  0  0  0  0
    2.9522   58.8915   73.2095 H   0  0  0  0  0  0  0  0  0  0  0  0
   -0.0540   58.3784   72.9783 H   0  0  0  0  0  0  0  0  0  0  0  0
    1.1903   57.3616   73.8253 H   0  0  0  0  0  0  0  0  0  0  0  0
   -0.3899   60.8303   73.7285 H   0  0  0  0  0  0  0  0  0  0  0  0
    0.8371   61.5872   76.3884 H   0  0  0  0  0  0  0  0  0  0  0  0
   -0.6471   62.1831   75.6495 H   0  0  0  0  0  0  0  0  0  0  0  0
   -0.4281   60.0225   77.5306 H   0  0  0  0  0  0  0  0  0  0  0  0
   -1.8825   60.4039   76.5813 H   0  0  0  0  0  0  0  0  0  0  0  0
   -2.6845   58.2976   75.5501 H   0  0  0  0  0  0  0  0  0  0  0  0
   -2.1192   59.3802   74.2329 H   0  0  0  0  0  0  0  0  0  0  0  0
   -1.6517   57.6458   74.2329 H   0  0  0  0  0  0  0  0  0  0  0  0
    1.6466   59.0332   76.8015 H   0  0  0  0  0  0  0  0  0  0  0  0
    2.3928   58.0090   75.5283 H   0  0  0  0  0  0  0  0  0  0  0  0
    2.6673   59.7842   75.5283 H   0  0  0  0  0  0  0  0  0  0  0  0
    4.0411   61.3112   73.2380 H   0  0  0  0  0  0  0  0  0  0  0  0
    4.8493   60.4995   71.8544 H   0  0  0  0  0  0  0  0  0  0  0  0
    4.6457   62.2842   71.8544 H   0  0  0  0  0  0  0  0  0  0  0  0
   -0.4350   58.0652   77.4990 H   0  0  0  0  0  0  0  0  0  0  0  0
  2  1  2  0
  3  2  1  0
  4  3  1  0
  5  4  1  0
  6  5  1  0
  7  2  1  0
  7  6  2  0
  8  6  1  0
  9  8  1  0
 10  9  1  0
 11 10  1  0
 11  5  1  0
 12 11  1  0
 13 12  1  0
 14 13  1  0
 15 14  1  0
 15 10  1  0
 16 15  1  0
 17 16  1  0
 18 17  1  0
 18 14  1  0
 19 18  1  0
 14 20  1  1
  5 21  1  1
 18 22  1  1
  3 23  1  0
  3 24  1  0
  4 25  1  0
  4 26  1  0
  7 27  1  0
  8 28  1  0
  8 29  1  0
  9 30  1  0
  9 31  1  0
 10 32  1  1
 11 33  1  6
 12 34  1  0
 12 35  1  0
 13 36  1  0
 13 37  1  0
 15 38  1  6
 16 39  1  0
 16 40  1  0
 17 41  1  0
 17 42  1  0
 19 43  1  0
 19 44  1  0
 19 45  1  0
 20 46  1  0
 20 47  1  0
 20 48  1  0
 21 49  1  0
 21 50  1  0
 21 51  1  0
 22 52  1  0
M  END
>  <score>  (4) 
-7.963

$$$$
=
     RDKit          3D

 52 55  0  0  0  0  0  0  0  0999 V2000
    0.3530   64.8580   69.9000 O   0  0  0  0  0  0  0  0  0  0  0  0
    0.7330   63.8370   70.4710 C   0  0  0  0  0  0  0  0  0  0  0  0
    2.1250   63.2870   70.2780 C   0  0  0  0  0  0  0  0  0  0  0  0
    2.2570   61.8410   70.7550 C   0  0  0  0  0  0  0  0  0  0  0  0
    1.6530   61.6010   72.1650 C   0  0  1  0  0  0  0  0  0  0  0  0
    0.2060   62.1030   72.1510 C   0  0  0  0  0  0  0  0  0  0  0  0
   -0.1960   63.1330   71.3860 C   0  0  0  0  0  0  0  0  0  0  0  0
   -0.8220   61.3260   72.9450 C   0  0  0  0  0  0  0  0  0  0  0  0
   -0.2630   60.6320   74.1830 C   0  0  0  0  0  0  0  0  0  0  0  0
    1.0250   59.8240   73.9310 C   0  0  2  0  0  0  0  0  0  0  0  0
    1.6210   60.0730   72.5070 C   0  0  2  0  0  0  0  0  0  0  0  0
    2.9580   59.3160   72.3220 C   0  0  0  0  0  0  0  0  0  0  0  0
    2.8210   57.8100   72.6320 C   0  0  0  0  0  0  0  0  0  0  0  0
    2.2170   57.5580   74.0260 C   0  0  1  0  0  0  0  0  0  0  0  0
    0.8640   58.3090   74.1190 C   0  0  1  0  0  0  0  0  0  0  0  0
    0.2600   57.7780   75.4140 C   0  0  0  0  0  0  0  0  0  0  0  0
    0.7160   56.3070   75.4830 C   0  0  0  0  0  0  0  0  0  0  0  0
    1.7570   56.1020   74.3490 C   0  0  1  0  0  0  0  0  0  0  0  0
    1.1390   55.3320   73.1750 C   0  0  0  0  0  0  0  0  0  0  0  0
    3.2590   58.0120   75.0930 C   0  0  0  0  0  0  0  0  0  0  0  0
    2.4700   62.4020   73.2060 C   0  0  0  0  0  0  0  0  0  0  0  0
    2.8460   55.3140   74.8270 O   0  0  0  0  0  0  0  0  0  0  0  0
    2.3752   63.3291   69.2077 H   0  0  0  0  0  0  0  0  0  0  0  0
    2.8119   63.9003   70.8797 H   0  0  0  0  0  0  0  0  0  0  0  0
    1.7385   61.1881   70.0375 H   0  0  0  0  0  0  0  0  0  0  0  0
    3.3319   61.6162   70.8188 H   0  0  0  0  0  0  0  0  0  0  0  0
   -1.2441   63.4624   71.4409 H   0  0  0  0  0  0  0  0  0  0  0  0
   -1.6088   62.0241   73.2668 H   0  0  0  0  0  0  0  0  0  0  0  0
   -1.1998   60.5335   72.2823 H   0  0  0  0  0  0  0  0  0  0  0  0
   -0.0451   61.4002   74.9395 H   0  0  0  0  0  0  0  0  0  0  0  0
   -1.0268   59.9120   74.5119 H   0  0  0  0  0  0  0  0  0  0  0  0
    1.7150   60.1982   74.7016 H   0  0  0  0  0  0  0  0  0  0  0  0
    0.9538   59.6391   71.7476 H   0  0  0  0  0  0  0  0  0  0  0  0
    3.2915   59.4347   71.2805 H   0  0  0  0  0  0  0  0  0  0  0  0
    3.6881   59.7415   73.0262 H   0  0  0  0  0  0  0  0  0  0  0  0
    2.1693   57.3498   71.8746 H   0  0  0  0  0  0  0  0  0  0  0  0
    3.8279   57.3676   72.6142 H   0  0  0  0  0  0  0  0  0  0  0  0
    0.1520   58.1202   73.3021 H   0  0  0  0  0  0  0  0  0  0  0  0
    0.6385   58.3426   76.2789 H   0  0  0  0  0  0  0  0  0  0  0  0
   -0.8355   57.8759   75.4336 H   0  0  0  0  0  0  0  0  0  0  0  0
    1.1759   56.0993   76.4604 H   0  0  0  0  0  0  0  0  0  0  0  0
   -0.1380   55.6246   75.3606 H   0  0  0  0  0  0  0  0  0  0  0  0
    0.4945   54.5289   73.5619 H   0  0  0  0  0  0  0  0  0  0  0  0
    0.5392   56.0196   72.5606 H   0  0  0  0  0  0  0  0  0  0  0  0
    1.9401   54.8953   72.5606 H   0  0  0  0  0  0  0  0  0  0  0  0
    2.8533   57.8353   76.1001 H   0  0  0  0  0  0  0  0  0  0  0  0
    4.1882   57.4372   74.9659 H   0  0  0  0  0  0  0  0  0  0  0  0
    3.4707   59.0839   74.9659 H   0  0  0  0  0  0  0  0  0  0  0  0
    2.1653   62.1033   74.2199 H   0  0  0  0  0  0  0  0  0  0  0  0
    3.5416   62.1948   73.0692 H   0  0  0  0  0  0  0  0  0  0  0  0
    2.2841   63.4775   73.0692 H   0  0  0  0  0  0  0  0  0  0  0  0
    2.8445   55.3151   75.8170 H   0  0  0  0  0  0  0  0  0  0  0  0
  2  1  2  0
  3  2  1  0
  4  3  1  0
  5  4  1  0
  6  5  1  0
  7  2  1  0
  7  6  2  0
  8  6  1  0
  9  8  1  0
 10  9  1  0
 11 10  1  0
 11  5  1  0
 12 11  1  0
 13 12  1  0
 14 13  1  0
 15 14  1  0
 15 10  1  0
 16 15  1  0
 17 16  1  0
 18 17  1  0
 18 14  1  0
 19 18  1  0
 14 20  1  1
  5 21  1  1
 18 22  1  1
  3 23  1  0
  3 24  1  0
  4 25  1  0
  4 26  1  0
  7 27  1  0
  8 28  1  0
  8 29  1  0
  9 30  1  0
  9 31  1  0
 10 32  1  1
 11 33  1  6
 12 34  1  0
 12 35  1  0
 13 36  1  0
 13 37  1  0
 15 38  1  6
 16 39  1  0
 16 40  1  0
 17 41  1  0
 17 42  1  0
 19 43  1  0
 19 44  1  0
 19 45  1  0
 20 46  1  0
 20 47  1  0
 20 48  1  0
 21 49  1  0
 21 50  1  0
 21 51  1  0
 22 52  1  0
M  END
>  <score>  (5) 
-7.952

$$$$
=
     RDKit          3D

 52 55  0  0  0  0  0  0  0  0999 V2000
   -3.4730   62.7890   76.7100 O   0  0  0  0  0  0  0  0  0  0  0  0
   -2.4260   62.5570   76.1080 C   0  0  0  0  0  0  0  0  0  0  0  0
   -1.2410   63.4890   76.1810 C   0  0  0  0  0  0  0  0  0  0  0  0
   -0.2150   63.2210   75.0810 C   0  0  0  0  0  0  0  0  0  0  0  0
    0.1470   61.7200   74.9300 C   0  0  1  0  0  0  0  0  0  0  0  0
   -1.1550   60.9340   74.7450 C   0  0  0  0  0  0  0  0  0  0  0  0
   -2.3180   61.3180   75.3010 C   0  0  0  0  0  0  0  0  0  0  0  0
   -1.1410   59.7490   73.8040 C   0  0  0  0  0  0  0  0  0  0  0  0
    0.2030   59.0350   73.7160 C   0  0  0  0  0  0  0  0  0  0  0  0
    1.4080   59.9730   73.5050 C   0  0  2  0  0  0  0  0  0  0  0  0
    1.0280   61.4810   73.6570 C   0  0  2  0  0  0  0  0  0  0  0  0
    2.2770   62.3860   73.5260 C   0  0  0  0  0  0  0  0  0  0  0  0
    3.0550   62.1190   72.2190 C   0  0  0  0  0  0  0  0  0  0  0  0
    3.4160   60.6310   72.0550 C   0  0  1  0  0  0  0  0  0  0  0  0
    2.1140   59.7950   72.1520 C   0  0  1  0  0  0  0  0  0  0  0  0
    2.5610   58.4030   71.7210 C   0  0  0  0  0  0  0  0  0  0  0  0
    3.6360   58.6550   70.6460 C   0  0  0  0  0  0  0  0  0  0  0  0
    3.9410   60.1770   70.6570 C   0  0  1  0  0  0  0  0  0  0  0  0
    3.2910   60.8710   69.4530 C   0  0  0  0  0  0  0  0  0  0  0  0
    4.4750   60.2680   73.1390 C   0  0  0  0  0  0  0  0  0  0  0  0
    0.8630   61.2420   76.2150 C   0  0  0  0  0  0  0  0  0  0  0  0
    5.3460   60.3920   70.5420 O   0  0  0  0  0  0  0  0  0  0  0  0
   -1.6002   64.5241   76.0833 H   0  0  0  0  0  0  0  0  0  0  0  0
   -0.7444   63.3219   77.1482 H   0  0  0  0  0  0  0  0  0  0  0  0
   -0.6265   63.5785   74.1255 H   0  0  0  0  0  0  0  0  0  0  0  0
    0.7073   63.7514   75.3603 H   0  0  0  0  0  0  0  0  0  0  0  0
   -3.2131   60.6960   75.1530 H   0  0  0  0  0  0  0  0  0  0  0  0
   -1.8938   59.0253   74.1498 H   0  0  0  0  0  0  0  0  0  0  0  0
   -1.3561   60.1415   72.7992 H   0  0  0  0  0  0  0  0  0  0  0  0
    0.3594   58.4788   74.6520 H   0  0  0  0  0  0  0  0  0  0  0  0
    0.1547   58.3813   72.8327 H   0  0  0  0  0  0  0  0  0  0  0  0
    2.1053   59.6761   74.3023 H   0  0  0  0  0  0  0  0  0  0  0  0
    0.3811   61.7833   72.8203 H   0  0  0  0  0  0  0  0  0  0  0  0
    1.9554   63.4379   73.5385 H   0  0  0  0  0  0  0  0  0  0  0  0
    2.9465   62.1626   74.3697 H   0  0  0  0  0  0  0  0  0  0  0  0
    2.4335   62.4295   71.3662 H   0  0  0  0  0  0  0  0  0  0  0  0
    3.9924   62.6932   72.2588 H   0  0  0  0  0  0  0  0  0  0  0  0
    1.2891   60.1111   71.4965 H   0  0  0  0  0  0  0  0  0  0  0  0
    2.9853   57.8505   72.5723 H   0  0  0  0  0  0  0  0  0  0  0  0
    1.7260   57.7958   71.3414 H   0  0  0  0  0  0  0  0  0  0  0  0
    4.5470   58.0855   70.8820 H   0  0  0  0  0  0  0  0  0  0  0  0
    3.2834   58.3325   69.6552 H   0  0  0  0  0  0  0  0  0  0  0  0
    2.5793   61.6309   69.8080 H   0  0  0  0  0  0  0  0  0  0  0  0
    4.0694   61.3538   68.8439 H   0  0  0  0  0  0  0  0  0  0  0  0
    2.7583   60.1259   68.8439 H   0  0  0  0  0  0  0  0  0  0  0  0
    4.0417   60.4165   74.1391 H   0  0  0  0  0  0  0  0  0  0  0  0
    4.7742   59.2160   73.0215 H   0  0  0  0  0  0  0  0  0  0  0  0
    5.3566   60.9152   73.0215 H   0  0  0  0  0  0  0  0  0  0  0  0
    0.3161   61.6071   77.0969 H   0  0  0  0  0  0  0  0  0  0  0  0
    0.8923   60.1425   76.2310 H   0  0  0  0  0  0  0  0  0  0  0  0
    1.8897   61.6365   76.2310 H   0  0  0  0  0  0  0  0  0  0  0  0
    5.7455   60.4531   71.4457 H   0  0  0  0  0  0  0  0  0  0  0  0
  2  1  2  0
  3  2  1  0
  4  3  1  0
  5  4  1  0
  6  5  1  0
  7  2  1  0
  7  6  2  0
  8  6  1  0
  9  8  1  0
 10  9  1  0
 11 10  1  0
 11  5  1  0
 12 11  1  0
 13 12  1  0
 14 13  1  0
 15 14  1  0
 15 10  1  0
 16 15  1  0
 17 16  1  0
 18 17  1  0
 18 14  1  0
 19 18  1  0
 14 20  1  1
  5 21  1  1
 18 22  1  1
  3 23  1  0
  3 24  1  0
  4 25  1  0
  4 26  1  0
  7 27  1  0
  8 28  1  0
  8 29  1  0
  9 30  1  0
  9 31  1  0
 10 32  1  1
 11 33  1  6
 12 34  1  0
 12 35  1  0
 13 36  1  0
 13 37  1  0
 15 38  1  6
 16 39  1  0
 16 40  1  0
 17 41  1  0
 17 42  1  0
 19 43  1  0
 19 44  1  0
 19 45  1  0
 20 46  1  0
 20 47  1  0
 20 48  1  0
 21 49  1  0
 21 50  1  0
 21 51  1  0
 22 52  1  0
M  END
>  <score>  (6) 
-7.871

$$$$
=
     RDKit          3D

 52 55  0  0  0  0  0  0  0  0999 V2000
    1.3650   67.2110   69.4880 O   0  0  0  0  0  0  0  0  0  0  0  0
    1.1950   66.2090   70.1790 C   0  0  0  0  0  0  0  0  0  0  0  0
    0.0070   66.0650   71.0980 C   0  0  0  0  0  0  0  0  0  0  0  0
    0.1910   64.9490   72.1260 C   0  0  0  0  0  0  0  0  0  0  0  0
    0.6970   63.6190   71.5060 C   0  0  1  0  0  0  0  0  0  0  0  0
    1.9700   63.9230   70.7100 C   0  0  0  0  0  0  0  0  0  0  0  0
    2.1770   65.1010   70.0970 C   0  0  0  0  0  0  0  0  0  0  0  0
    3.0760   62.8900   70.7220 C   0  0  0  0  0  0  0  0  0  0  0  0
    2.5900   61.4520   70.8700 C   0  0  0  0  0  0  0  0  0  0  0  0
    1.5710   61.2410   72.0070 C   0  0  2  0  0  0  0  0  0  0  0  0
    1.0720   62.5880   72.6240 C   0  0  2  0  0  0  0  0  0  0  0  0
   -0.0130   62.3400   73.7000 C   0  0  0  0  0  0  0  0  0  0  0  0
    0.4610   61.3520   74.7870 C   0  0  0  0  0  0  0  0  0  0  0  0
    0.9710   60.0300   74.1850 C   0  0  1  0  0  0  0  0  0  0  0  0
    2.0820   60.3560   73.1530 C   0  0  1  0  0  0  0  0  0  0  0  0
    2.6720   58.9860   72.8320 C   0  0  0  0  0  0  0  0  0  0  0  0
    2.5880   58.2060   74.1580 C   0  0  0  0  0  0  0  0  0  0  0  0
    1.7430   59.0650   75.1380 C   0  0  1  0  0  0  0  0  0  0  0  0
    2.6420   59.7470   76.1770 C   0  0  0  0  0  0  0  0  0  0  0  0
   -0.2480   59.2750   73.5730 C   0  0  0  0  0  0  0  0  0  0  0  0
   -0.3880   63.0610   70.5570 C   0  0  0  0  0  0  0  0  0  0  0  0
    0.8420   58.2300   75.8630 O   0  0  0  0  0  0  0  0  0  0  0  0
   -0.1424   67.0149   71.6322 H   0  0  0  0  0  0  0  0  0  0  0  0
   -0.8643   65.8067   70.4782 H   0  0  0  0  0  0  0  0  0  0  0  0
    0.9212   65.2837   72.8775 H   0  0  0  0  0  0  0  0  0  0  0  0
   -0.7961   64.7473   72.5675 H   0  0  0  0  0  0  0  0  0  0  0  0
    3.1009   65.2473   69.5182 H   0  0  0  0  0  0  0  0  0  0  0  0
    3.6324   62.9700   69.7765 H   0  0  0  0  0  0  0  0  0  0  0  0
    3.6980   63.1046   71.6035 H   0  0  0  0  0  0  0  0  0  0  0  0
    2.1182   61.1487   69.9238 H   0  0  0  0  0  0  0  0  0  0  0  0
    3.4726   60.8454   71.1212 H   0  0  0  0  0  0  0  0  0  0  0  0
    0.7392   60.7206   71.5098 H   0  0  0  0  0  0  0  0  0  0  0  0
    1.8952   63.0699   73.1718 H   0  0  0  0  0  0  0  0  0  0  0  0
   -0.2644   63.2985   74.1775 H   0  0  0  0  0  0  0  0  0  0  0  0
   -0.8893   61.8998   73.2017 H   0  0  0  0  0  0  0  0  0  0  0  0
    1.2760   61.8188   75.3596 H   0  0  0  0  0  0  0  0  0  0  0  0
   -0.3988   61.1208   75.4329 H   0  0  0  0  0  0  0  0  0  0  0  0
    2.8934   61.0073   73.5099 H   0  0  0  0  0  0  0  0  0  0  0  0
    2.0850   58.4843   72.0486 H   0  0  0  0  0  0  0  0  0  0  0  0
    3.7023   59.0541   72.4528 H   0  0  0  0  0  0  0  0  0  0  0  0
    2.1023   57.2328   73.9936 H   0  0  0  0  0  0  0  0  0  0  0  0
    3.5918   58.0177   74.5667 H   0  0  0  0  0  0  0  0  0  0  0  0
    2.2972   59.4855   77.1883 H   0  0  0  0  0  0  0  0  0  0  0  0
    3.6796   59.4068   76.0439 H   0  0  0  0  0  0  0  0  0  0  0  0
    2.5939   60.8379   76.0439 H   0  0  0  0  0  0  0  0  0  0  0  0
   -0.8808   58.8831   74.3829 H   0  0  0  0  0  0  0  0  0  0  0  0
   -0.8346   59.9682   72.9521 H   0  0  0  0  0  0  0  0  0  0  0  0
    0.1113   58.4411   72.9521 H   0  0  0  0  0  0  0  0  0  0  0  0
   -1.2116   62.6374   71.1505 H   0  0  0  0  0  0  0  0  0  0  0  0
   -0.7730   63.8729   69.9226 H   0  0  0  0  0  0  0  0  0  0  0  0
    0.0485   62.2755   69.9226 H   0  0  0  0  0  0  0  0  0  0  0  0
    0.9815   58.3593   76.8346 H   0  0  0  0  0  0  0  0  0  0  0  0
  2  1  2  0
  3  2  1  0
  4  3  1  0
  5  4  1  0
  6  5  1  0
  7  2  1  0
  7  6  2  0
  8  6  1  0
  9  8  1  0
 10  9  1  0
 11 10  1  0
 11  5  1  0
 12 11  1  0
 13 12  1  0
 14 13  1  0
 15 14  1  0
 15 10  1  0
 16 15  1  0
 17 16  1  0
 18 17  1  0
 18 14  1  0
 19 18  1  0
 14 20  1  6
  5 21  1  6
 18 22  1  1
  3 23  1  0
  3 24  1  0
  4 25  1  0
  4 26  1  0
  7 27  1  0
  8 28  1  0
  8 29  1  0
  9 30  1  0
  9 31  1  0
 10 32  1  6
 11 33  1  1
 12 34  1  0
 12 35  1  0
 13 36  1  0
 13 37  1  0
 15 38  1  1
 16 39  1  0
 16 40  1  0
 17 41  1  0
 17 42  1  0
 19 43  1  0
 19 44  1  0
 19 45  1  0
 20 46  1  0
 20 47  1  0
 20 48  1  0
 21 49  1  0
 21 50  1  0
 21 51  1  0
 22 52  1  0
M  END
>  <score>  (7) 
-7.61

$$$$
=
     RDKit          3D

 52 55  0  0  0  0  0  0  0  0999 V2000
    3.9020   63.0200   68.5040 O   0  0  0  0  0  0  0  0  0  0  0  0
    3.6320   62.4540   69.5620 C   0  0  0  0  0  0  0  0  0  0  0  0
    3.3210   63.2240   70.8220 C   0  0  0  0  0  0  0  0  0  0  0  0
    3.3970   62.3530   72.0760 C   0  0  0  0  0  0  0  0  0  0  0  0
    2.6430   61.0050   71.9360 C   0  0  1  0  0  0  0  0  0  0  0  0
    3.1640   60.3000   70.6790 C   0  0  0  0  0  0  0  0  0  0  0  0
    3.5970   60.9720   69.5980 C   0  0  0  0  0  0  0  0  0  0  0  0
    3.2990   58.7930   70.7160 C   0  0  0  0  0  0  0  0  0  0  0  0
    2.2900   58.0950   71.6230 C   0  0  0  0  0  0  0  0  0  0  0  0
    2.1690   58.7130   73.0300 C   0  0  2  0  0  0  0  0  0  0  0  0
    2.9360   60.0700   73.1570 C   0  0  2  0  0  0  0  0  0  0  0  0
    2.7190   60.7030   74.5530 C   0  0  0  0  0  0  0  0  0  0  0  0
    3.0790   59.7290   75.6960 C   0  0  0  0  0  0  0  0  0  0  0  0
    2.3420   58.3840   75.5650 C   0  0  1  0  0  0  0  0  0  0  0  0
    2.6420   57.7930   74.1640 C   0  0  1  0  0  0  0  0  0  0  0  0
    2.0840   56.3760   74.2570 C   0  0  0  0  0  0  0  0  0  0  0  0
    2.3430   55.9510   75.7160 C   0  0  0  0  0  0  0  0  0  0  0  0
    2.8270   57.2150   76.4780 C   0  0  1  0  0  0  0  0  0  0  0  0
    4.3410   57.1560   76.7200 C   0  0  0  0  0  0  0  0  0  0  0  0
    0.8250   58.6370   75.8260 C   0  0  0  0  0  0  0  0  0  0  0  0
    1.1300   61.2870   71.7830 C   0  0  0  0  0  0  0  0  0  0  0  0
    2.2100   57.2750   77.7620 O   0  0  0  0  0  0  0  0  0  0  0  0
    4.0445   64.0468   70.9199 H   0  0  0  0  0  0  0  0  0  0  0  0
    2.2902   63.5987   70.7381 H   0  0  0  0  0  0  0  0  0  0  0  0
    4.4550   62.1403   72.2892 H   0  0  0  0  0  0  0  0  0  0  0  0
    2.9133   62.9127   72.8901 H   0  0  0  0  0  0  0  0  0  0  0  0
    3.9344   60.4072   68.7165 H   0  0  0  0  0  0  0  0  0  0  0  0
    3.1660   58.4099   69.6935 H   0  0  0  0  0  0  0  0  0  0  0  0
    4.2958   58.5757   71.1273 H   0  0  0  0  0  0  0  0  0  0  0  0
    1.3027   58.1414   71.1401 H   0  0  0  0  0  0  0  0  0  0  0  0
    2.6500   57.0648   71.7610 H   0  0  0  0  0  0  0  0  0  0  0  0
    1.0873   58.8765   73.1444 H   0  0  0  0  0  0  0  0  0  0  0  0
    4.0193   59.8866   73.1032 H   0  0  0  0  0  0  0  0  0  0  0  0
    3.3516   61.5989   74.6382 H   0  0  0  0  0  0  0  0  0  0  0  0
    1.6527   60.9562   74.6476 H   0  0  0  0  0  0  0  0  0  0  0  0
    4.1629   59.5429   75.6751 H   0  0  0  0  0  0  0  0  0  0  0  0
    2.7716   60.1924   76.6451 H   0  0  0  0  0  0  0  0  0  0  0  0
    3.7046   57.7293   73.8870 H   0  0  0  0  0  0  0  0  0  0  0  0
    1.0066   56.3676   74.0355 H   0  0  0  0  0  0  0  0  0  0  0  0
    2.5551   55.6939   73.5339 H   0  0  0  0  0  0  0  0  0  0  0  0
    1.4160   55.5690   76.1684 H   0  0  0  0  0  0  0  0  0  0  0  0
    3.0965   55.1511   75.7640 H   0  0  0  0  0  0  0  0  0  0  0  0
    4.5394   57.1483   77.8019 H   0  0  0  0  0  0  0  0  0  0  0  0
    4.7496   56.2413   76.2658 H   0  0  0  0  0  0  0  0  0  0  0  0
    4.8195   58.0362   76.2658 H   0  0  0  0  0  0  0  0  0  0  0  0
    0.6396   58.6679   76.9098 H   0  0  0  0  0  0  0  0  0  0  0  0
    0.5306   59.5966   75.3761 H   0  0  0  0  0  0  0  0  0  0  0  0
    0.2351   57.8248   75.3761 H   0  0  0  0  0  0  0  0  0  0  0  0
    0.6705   61.3727   72.7787 H   0  0  0  0  0  0  0  0  0  0  0  0
    0.9863   62.2274   71.2307 H   0  0  0  0  0  0  0  0  0  0  0  0
    0.6572   60.4615   71.2307 H   0  0  0  0  0  0  0  0  0  0  0  0
    2.9038   57.2075   78.4650 H   0  0  0  0  0  0  0  0  0  0  0  0
  2  1  2  0
  3  2  1  0
  4  3  1  0
  5  4  1  0
  6  5  1  0
  7  2  1  0
  7  6  2  0
  8  6  1  0
  9  8  1  0
 10  9  1  0
 11 10  1  0
 11  5  1  0
 12 11  1  0
 13 12  1  0
 14 13  1  0
 15 14  1  0
 15 10  1  0
 16 15  1  0
 17 16  1  0
 18 17  1  0
 18 14  1  0
 19 18  1  0
 14 20  1  6
  5 21  1  6
 18 22  1  1
  3 23  1  0
  3 24  1  0
  4 25  1  0
  4 26  1  0
  7 27  1  0
  8 28  1  0
  8 29  1  0
  9 30  1  0
  9 31  1  0
 10 32  1  1
 11 33  1  1
 12 34  1  0
 12 35  1  0
 13 36  1  0
 13 37  1  0
 15 38  1  6
 16 39  1  0
 16 40  1  0
 17 41  1  0
 17 42  1  0
 19 43  1  0
 19 44  1  0
 19 45  1  0
 20 46  1  0
 20 47  1  0
 20 48  1  0
 21 49  1  0
 21 50  1  0
 21 51  1  0
 22 52  1  0
M  END
>  <score>  (8) 
-7.608

$$$$
=
     RDKit          3D

 52 55  0  0  0  0  0  0  0  0999 V2000
    3.5960   62.4380   68.3850 O   0  0  0  0  0  0  0  0  0  0  0  0
    3.0510   62.5490   69.4810 C   0  0  0  0  0  0  0  0  0  0  0  0
    2.6460   63.8920   70.0390 C   0  0  0  0  0  0  0  0  0  0  0  0
    2.3510   63.8400   71.5370 C   0  0  0  0  0  0  0  0  0  0  0  0
    1.4250   62.6630   71.9420 C   0  0  1  0  0  0  0  0  0  0  0  0
    2.0420   61.3680   71.4040 C   0  0  0  0  0  0  0  0  0  0  0  0
    2.7680   61.3280   70.2720 C   0  0  0  0  0  0  0  0  0  0  0  0
    1.9200   60.1190   72.2500 C   0  0  0  0  0  0  0  0  0  0  0  0
    0.6640   60.0680   73.1130 C   0  0  0  0  0  0  0  0  0  0  0  0
    0.3930   61.3550   73.9160 C   0  0  2  0  0  0  0  0  0  0  0  0
    1.3350   62.5320   73.5000 C   0  0  2  0  0  0  0  0  0  0  0  0
    0.9750   63.8300   74.2630 C   0  0  0  0  0  0  0  0  0  0  0  0
    0.9590   63.6200   75.7930 C   0  0  0  0  0  0  0  0  0  0  0  0
    0.0480   62.4500   76.2070 C   0  0  1  0  0  0  0  0  0  0  0  0
    0.4960   61.1810   75.4380 C   0  0  1  0  0  0  0  0  0  0  0  0
   -0.2930   60.0660   76.1170 C   0  0  0  0  0  0  0  0  0  0  0  0
   -0.3760   60.4920   77.5960 C   0  0  0  0  0  0  0  0  0  0  0  0
    0.1630   61.9470   77.6800 C   0  0  1  0  0  0  0  0  0  0  0  0
    1.5780   61.9690   78.2740 C   0  0  0  0  0  0  0  0  0  0  0  0
   -1.4290   62.8640   75.9250 C   0  0  0  0  0  0  0  0  0  0  0  0
    0.0310   62.8770   71.3070 C   0  0  0  0  0  0  0  0  0  0  0  0
   -0.6590   62.7190   78.5530 O   0  0  0  0  0  0  0  0  0  0  0  0
    3.4638   64.6069   69.8654 H   0  0  0  0  0  0  0  0  0  0  0  0
    1.7223   64.2008   69.5277 H   0  0  0  0  0  0  0  0  0  0  0  0
    3.3038   63.7357   72.0766 H   0  0  0  0  0  0  0  0  0  0  0  0
    1.8257   64.7708   71.7971 H   0  0  0  0  0  0  0  0  0  0  0  0
    3.1626   60.3620   69.9238 H   0  0  0  0  0  0  0  0  0  0  0  0
    1.9130   59.2474   71.5790 H   0  0  0  0  0  0  0  0  0  0  0  0
    2.7771   60.1197   72.9395 H   0  0  0  0  0  0  0  0  0  0  0  0
   -0.1985   59.8843   72.4554 H   0  0  0  0  0  0  0  0  0  0  0  0
    0.8198   59.2650   73.8485 H   0  0  0  0  0  0  0  0  0  0  0  0
   -0.6501   61.5967   73.6640 H   0  0  0  0  0  0  0  0  0  0  0  0
    2.3654   62.3074   73.8128 H   0  0  0  0  0  0  0  0  0  0  0  0
    1.7189   64.6027   74.0189 H   0  0  0  0  0  0  0  0  0  0  0  0
   -0.0351   64.1358   73.9528 H   0  0  0  0  0  0  0  0  0  0  0  0
    1.9837   63.4092   76.1329 H   0  0  0  0  0  0  0  0  0  0  0  0
    0.5655   64.5365   76.2568 H   0  0  0  0  0  0  0  0  0  0  0  0
    1.5663   60.9346   75.4993 H   0  0  0  0  0  0  0  0  0  0  0  0
   -1.2991   59.9811   75.6805 H   0  0  0  0  0  0  0  0  0  0  0  0
    0.1840   59.0826   75.9927 H   0  0  0  0  0  0  0  0  0  0  0  0
   -1.4196   60.4551   77.9419 H   0  0  0  0  0  0  0  0  0  0  0  0
    0.2145   59.8170   78.2329 H   0  0  0  0  0  0  0  0  0  0  0  0
    1.5147   61.9680   79.3722 H   0  0  0  0  0  0  0  0  0  0  0  0
    2.1307   61.0793   77.9378 H   0  0  0  0  0  0  0  0  0  0  0  0
    2.1028   62.8754   77.9378 H   0  0  0  0  0  0  0  0  0  0  0  0
   -1.9568   63.0119   76.8787 H   0  0  0  0  0  0  0  0  0  0  0  0
   -1.4436   63.8008   75.3487 H   0  0  0  0  0  0  0  0  0  0  0  0
   -1.9284   62.0712   75.3487 H   0  0  0  0  0  0  0  0  0  0  0  0
   -0.7203   62.9923   72.1021 H   0  0  0  0  0  0  0  0  0  0  0  0
    0.0472   63.7832   70.6836 H   0  0  0  0  0  0  0  0  0  0  0  0
   -0.2253   62.0077   70.6836 H   0  0  0  0  0  0  0  0  0  0  0  0
   -0.4327   62.5065   79.4931 H   0  0  0  0  0  0  0  0  0  0  0  0
  2  1  2  0
  3  2  1  0
  4  3  1  0
  5  4  1  0
  6  5  1  0
  7  2  1  0
  7  6  2  0
  8  6  1  0
  9  8  1  0
 10  9  1  0
 11 10  1  0
 11  5  1  0
 12 11  1  0
 13 12  1  0
 14 13  1  0
 15 14  1  0
 15 10  1  0
 16 15  1  0
 17 16  1  0
 18 17  1  0
 18 14  1  0
 19 18  1  0
 14 20  1  6
  5 21  1  6
 18 22  1  1
  3 23  1  0
  3 24  1  0
  4 25  1  0
  4 26  1  0
  7 27  1  0
  8 28  1  0
  8 29  1  0
  9 30  1  0
  9 31  1  0
 10 32  1  1
 11 33  1  1
 12 34  1  0
 12 35  1  0
 13 36  1  0
 13 37  1  0
 15 38  1  6
 16 39  1  0
 16 40  1  0
 17 41  1  0
 17 42  1  0
 19 43  1  0
 19 44  1  0
 19 45  1  0
 20 46  1  0
 20 47  1  0
 20 48  1  0
 21 49  1  0
 21 50  1  0
 21 51  1  0
 22 52  1  0
M  END
>  <score>  (9) 
-7.053

$$$$
