=
     RDKit          3D

 37 40  0  0  0  0  0  0  0  0999 V2000
    1.1970   67.5170   65.8200 C   0  0  0  0  0  0  0  0  0  0  0  0
   -0.6810   69.7610   61.9480 O   0  0  0  0  0  0  0  0  0  0  0  0
    0.0930   69.1910   62.6800 C   0  0  0  0  0  0  0  0  0  0  0  0
    1.4760   68.8200   62.3840 C   0  0  0  0  0  0  0  0  0  0  0  0
    2.2120   69.0310   61.2340 C   0  0  0  0  0  0  0  0  0  0  0  0
    3.5350   68.5880   61.2390 C   0  0  0  0  0  0  0  0  0  0  0  0
    4.0760   67.9620   62.3780 C   0  0  0  0  0  0  0  0  0  0  0  0
    3.3060   67.7610   63.5310 C   0  0  0  0  0  0  0  0  0  0  0  0
    1.9920   68.1940   63.5170 C   0  0  0  0  0  0  0  0  0  0  0  0
    1.0210   68.1120   64.5290 N   0  0  0  0  0  0  0  0  0  0  0  0
   -0.1590   68.7200   64.1330 C   0  0  0  0  0  0  0  0  0  0  0  0
   -1.1850   68.9000   64.7540 O   0  0  0  0  0  0  0  0  0  0  0  0
    1.0650   68.5280   66.8540 N   0  0  0  0  0  0  0  0  0  0  0  0
    2.1770   69.1490   67.4300 C   0  0  0  0  0  0  0  0  0  0  0  0
    2.1410   69.8570   68.6330 C   0  0  0  0  0  0  0  0  0  0  0  0
    3.2780   70.5070   69.1280 C   0  0  0  0  0  0  0  0  0  0  0  0
    4.4820   70.4980   68.4110 C   0  0  0  0  0  0  0  0  0  0  0  0
    4.5300   69.8300   67.1720 C   0  0  0  0  0  0  0  0  0  0  0  0
    3.3750   69.1810   66.6970 C   0  0  0  0  0  0  0  0  0  0  0  0
    5.7300   69.8320   66.4400 C   0  0  0  0  0  0  0  0  0  0  0  0
    6.8650   70.4790   66.9310 C   0  0  0  0  0  0  0  0  0  0  0  0
    6.8170   71.1340   68.1570 C   0  0  0  0  0  0  0  0  0  0  0  0
    5.6310   71.1450   68.8940 C   0  0  0  0  0  0  0  0  0  0  0  0
    0.4330   66.7400   65.9704 H   0  0  0  0  0  0  0  0  0  0  0  0
    2.2002   67.0694   65.8780 H   0  0  0  0  0  0  0  0  0  0  0  0
    1.7747   69.5259   60.3543 H   0  0  0  0  0  0  0  0  0  0  0  0
    4.1607   68.7291   60.3453 H   0  0  0  0  0  0  0  0  0  0  0  0
    5.1228   67.6244   62.3624 H   0  0  0  0  0  0  0  0  0  0  0  0
    3.7330   67.2739   64.4201 H   0  0  0  0  0  0  0  0  0  0  0  0
    0.1229   68.7958   67.1728 H   0  0  0  0  0  0  0  0  0  0  0  0
    1.2013   69.9050   69.2027 H   0  0  0  0  0  0  0  0  0  0  0  0
    3.2255   71.0321   70.0932 H   0  0  0  0  0  0  0  0  0  0  0  0
    3.4116   68.6814   65.7177 H   0  0  0  0  0  0  0  0  0  0  0  0
    5.7751   69.3176   65.4687 H   0  0  0  0  0  0  0  0  0  0  0  0
    7.7978   70.4709   66.3481 H   0  0  0  0  0  0  0  0  0  0  0  0
    7.7118   71.6425   68.5454 H   0  0  0  0  0  0  0  0  0  0  0  0
    5.5964   71.6656   69.8624 H   0  0  0  0  0  0  0  0  0  0  0  0
  3  2  2  0
  4  3  1  0
  5  4  2  0
  6  5  1  0
  7  6  2  0
  8  7  1  0
  9  8  2  0
  9  4  1  0
 10  9  1  0
 10  1  1  0
 11 10  1  0
 11  3  1  0
 12 11  2  0
 13  1  1  0
 14 13  1  0
 15 14  2  0
 16 15  1  0
 17 16  2  0
 18 17  1  0
 19 18  2  0
 19 14  1  0
 20 18  1  0
 21 20  2  0
 22 21  1  0
 23 17  1  0
 23 22  2  0
  1 24  1  0
  1 25  1  0
  5 26  1  0
  6 27  1  0
  7 28  1  0
  8 29  1  0
 13 30  1  0
 15 31  1  0
 16 32  1  0
 19 33  1  0
 20 34  1  0
 21 35  1  0
 22 36  1  0
 23 37  1  0
M  END
>  <score>  (1) 
-11.336

$$$$
=
     RDKit          3D

 37 40  0  0  0  0  0  0  0  0999 V2000
    1.0930   67.1790   65.5140 C   0  0  0  0  0  0  0  0  0  0  0  0
    4.9490   65.1180   63.4070 O   0  0  0  0  0  0  0  0  0  0  0  0
    4.0190   65.8580   63.6220 C   0  0  0  0  0  0  0  0  0  0  0  0
    3.5820   66.9870   62.8020 C   0  0  0  0  0  0  0  0  0  0  0  0
    4.1060   67.4620   61.6150 C   0  0  0  0  0  0  0  0  0  0  0  0
    3.4640   68.5540   61.0320 C   0  0  0  0  0  0  0  0  0  0  0  0
    2.3300   69.1270   61.6390 C   0  0  0  0  0  0  0  0  0  0  0  0
    1.8190   68.6240   62.8430 C   0  0  0  0  0  0  0  0  0  0  0  0
    2.4670   67.5470   63.4230 C   0  0  0  0  0  0  0  0  0  0  0  0
    2.1620   66.8660   64.6140 N   0  0  0  0  0  0  0  0  0  0  0  0
    3.0250   65.8010   64.8080 C   0  0  0  0  0  0  0  0  0  0  0  0
    3.0320   64.9570   65.6810 O   0  0  0  0  0  0  0  0  0  0  0  0
    1.1610   68.5780   65.8950 N   0  0  0  0  0  0  0  0  0  0  0  0
    2.1600   69.0690   66.7410 C   0  0  0  0  0  0  0  0  0  0  0  0
    1.9380   69.4880   68.0540 C   0  0  0  0  0  0  0  0  0  0  0  0
    2.9710   70.0250   68.8310 C   0  0  0  0  0  0  0  0  0  0  0  0
    4.2570   70.1930   68.3010 C   0  0  0  0  0  0  0  0  0  0  0  0
    4.4960   69.8200   66.9640 C   0  0  0  0  0  0  0  0  0  0  0  0
    3.4410   69.2790   66.2040 C   0  0  0  0  0  0  0  0  0  0  0  0
    5.7790   70.0010   66.4220 C   0  0  0  0  0  0  0  0  0  0  0  0
    6.8120   70.5370   67.1940 C   0  0  0  0  0  0  0  0  0  0  0  0
    6.5760   70.8990   68.5160 C   0  0  0  0  0  0  0  0  0  0  0  0
    5.3040   70.7290   69.0670 C   0  0  0  0  0  0  0  0  0  0  0  0
    0.1304   66.9822   65.0193 H   0  0  0  0  0  0  0  0  0  0  0  0
    1.1832   66.5538   66.4145 H   0  0  0  0  0  0  0  0  0  0  0  0
    4.9896   66.9996   61.1509 H   0  0  0  0  0  0  0  0  0  0  0  0
    3.8470   68.9717   60.0892 H   0  0  0  0  0  0  0  0  0  0  0  0
    1.8363   69.9850   61.1594 H   0  0  0  0  0  0  0  0  0  0  0  0
    0.9305   69.0711   63.3127 H   0  0  0  0  0  0  0  0  0  0  0  0
    0.4511   69.2294   65.5307 H   0  0  0  0  0  0  0  0  0  0  0  0
    0.9310   69.3943   68.4867 H   0  0  0  0  0  0  0  0  0  0  0  0
    2.7704   70.3191   69.8718 H   0  0  0  0  0  0  0  0  0  0  0  0
    3.6265   69.0115   65.1533 H   0  0  0  0  0  0  0  0  0  0  0  0
    5.9725   69.7172   65.3770 H   0  0  0  0  0  0  0  0  0  0  0  0
    7.8121   70.6729   66.7566 H   0  0  0  0  0  0  0  0  0  0  0  0
    7.3895   71.3183   69.1263 H   0  0  0  0  0  0  0  0  0  0  0  0
    5.1207   71.0182   70.1123 H   0  0  0  0  0  0  0  0  0  0  0  0
  3  2  2  0
  4  3  1  0
  5  4  2  0
  6  5  1  0
  7  6  2  0
  8  7  1  0
  9  8  2  0
  9  4  1  0
 10  9  1  0
 10  1  1  0
 11 10  1  0
 11  3  1  0
 12 11  2  0
 13  1  1  0
 14 13  1  0
 15 14  2  0
 16 15  1  0
 17 16  2  0
 18 17  1  0
 19 18  2  0
 19 14  1  0
 20 18  1  0
 21 20  2  0
 22 21  1  0
 23 17  1  0
 23 22  2  0
  1 24  1  0
  1 25  1  0
  5 26  1  0
  6 27  1  0
  7 28  1  0
  8 29  1  0
 13 30  1  0
 15 31  1  0
 16 32  1  0
 19 33  1  0
 20 34  1  0
 21 35  1  0
 22 36  1  0
 23 37  1  0
M  END
>  <score>  (2) 
-11.325

$$$$
=
     RDKit          3D

 37 40  0  0  0  0  0  0  0  0999 V2000
    1.5390   67.4690   65.1550 C   0  0  0  0  0  0  0  0  0  0  0  0
    4.8040   67.0160   61.5920 O   0  0  0  0  0  0  0  0  0  0  0  0
    4.1350   66.7840   62.5710 C   0  0  0  0  0  0  0  0  0  0  0  0
    4.1860   65.5880   63.4100 C   0  0  0  0  0  0  0  0  0  0  0  0
    4.9900   64.4710   63.2950 C   0  0  0  0  0  0  0  0  0  0  0  0
    4.8400   63.4800   64.2650 C   0  0  0  0  0  0  0  0  0  0  0  0
    3.9080   63.6340   65.3090 C   0  0  0  0  0  0  0  0  0  0  0  0
    3.1050   64.7790   65.4010 C   0  0  0  0  0  0  0  0  0  0  0  0
    3.2510   65.7540   64.4310 C   0  0  0  0  0  0  0  0  0  0  0  0
    2.5750   66.9790   64.2960 N   0  0  0  0  0  0  0  0  0  0  0  0
    3.0620   67.6960   63.2160 C   0  0  0  0  0  0  0  0  0  0  0  0
    2.7720   68.8080   62.8290 O   0  0  0  0  0  0  0  0  0  0  0  0
    1.7710   68.8700   65.4600 N   0  0  0  0  0  0  0  0  0  0  0  0
    2.6110   69.2730   66.5010 C   0  0  0  0  0  0  0  0  0  0  0  0
    2.1700   69.5770   67.7900 C   0  0  0  0  0  0  0  0  0  0  0  0
    3.0550   70.0320   68.7740 C   0  0  0  0  0  0  0  0  0  0  0  0
    4.4110   70.2330   68.4850 C   0  0  0  0  0  0  0  0  0  0  0  0
    4.8730   69.9790   67.1790 C   0  0  0  0  0  0  0  0  0  0  0  0
    3.9640   69.5180   66.2070 C   0  0  0  0  0  0  0  0  0  0  0  0
    6.2280   70.1940   66.8780 C   0  0  0  0  0  0  0  0  0  0  0  0
    7.1140   70.6490   67.8570 C   0  0  0  0  0  0  0  0  0  0  0  0
    6.6570   70.8950   69.1470 C   0  0  0  0  0  0  0  0  0  0  0  0
    5.3120   70.6890   69.4610 C   0  0  0  0  0  0  0  0  0  0  0  0
    0.5667   67.3614   64.6519 H   0  0  0  0  0  0  0  0  0  0  0  0
    1.5399   66.8898   66.0902 H   0  0  0  0  0  0  0  0  0  0  0  0
    5.7161   64.3675   62.4752 H   0  0  0  0  0  0  0  0  0  0  0  0
    5.4555   62.5698   64.2138 H   0  0  0  0  0  0  0  0  0  0  0  0
    3.8083   62.8418   66.0657 H   0  0  0  0  0  0  0  0  0  0  0  0
    2.3805   64.8986   66.2200 H   0  0  0  0  0  0  0  0  0  0  0  0
    1.3015   69.5888   64.8910 H   0  0  0  0  0  0  0  0  0  0  0  0
    1.1050   69.4565   68.0374 H   0  0  0  0  0  0  0  0  0  0  0  0
    2.6808   70.2346   69.7883 H   0  0  0  0  0  0  0  0  0  0  0  0
    4.3249   69.3436   65.1826 H   0  0  0  0  0  0  0  0  0  0  0  0
    6.5956   70.0018   65.8592 H   0  0  0  0  0  0  0  0  0  0  0  0
    8.1728   70.8127   67.6077 H   0  0  0  0  0  0  0  0  0  0  0  0
    7.3543   71.2515   69.9194 H   0  0  0  0  0  0  0  0  0  0  0  0
    4.9548   70.8858   70.4826 H   0  0  0  0  0  0  0  0  0  0  0  0
  3  2  2  0
  4  3  1  0
  5  4  2  0
  6  5  1  0
  7  6  2  0
  8  7  1  0
  9  8  2  0
  9  4  1  0
 10  9  1  0
 10  1  1  0
 11 10  1  0
 11  3  1  0
 12 11  2  0
 13  1  1  0
 14 13  1  0
 15 14  2  0
 16 15  1  0
 17 16  2  0
 18 17  1  0
 19 18  2  0
 19 14  1  0
 20 18  1  0
 21 20  2  0
 22 21  1  0
 23 17  1  0
 23 22  2  0
  1 24  1  0
  1 25  1  0
  5 26  1  0
  6 27  1  0
  7 28  1  0
  8 29  1  0
 13 30  1  0
 15 31  1  0
 16 32  1  0
 19 33  1  0
 20 34  1  0
 21 35  1  0
 22 36  1  0
 23 37  1  0
M  END
>  <score>  (3) 
-11.175

$$$$
=
     RDKit          3D

 37 40  0  0  0  0  0  0  0  0999 V2000
    1.4420   67.4280   65.7350 C   0  0  0  0  0  0  0  0  0  0  0  0
    4.0790   67.4150   61.6600 O   0  0  0  0  0  0  0  0  0  0  0  0
    3.1990   67.6430   62.4560 C   0  0  0  0  0  0  0  0  0  0  0  0
    2.0140   68.4730   62.2470 C   0  0  0  0  0  0  0  0  0  0  0  0
    1.6210   69.1710   61.1210 C   0  0  0  0  0  0  0  0  0  0  0  0
    0.4150   69.8680   61.1970 C   0  0  0  0  0  0  0  0  0  0  0  0
   -0.3540   69.8430   62.3760 C   0  0  0  0  0  0  0  0  0  0  0  0
    0.0690   69.1260   63.5040 C   0  0  0  0  0  0  0  0  0  0  0  0
    1.2710   68.4460   63.4260 C   0  0  0  0  0  0  0  0  0  0  0  0
    1.9110   67.6630   64.4030 N   0  0  0  0  0  0  0  0  0  0  0  0
    3.0750   67.1030   63.9020 C   0  0  0  0  0  0  0  0  0  0  0  0
    3.8500   66.3290   64.4240 O   0  0  0  0  0  0  0  0  0  0  0  0
    1.3260   68.6860   66.4490 N   0  0  0  0  0  0  0  0  0  0  0  0
    2.3820   69.2130   67.2000 C   0  0  0  0  0  0  0  0  0  0  0  0
    2.2440   69.7230   68.4920 C   0  0  0  0  0  0  0  0  0  0  0  0
    3.3300   70.2900   69.1690 C   0  0  0  0  0  0  0  0  0  0  0  0
    4.5850   70.3970   68.5560 C   0  0  0  0  0  0  0  0  0  0  0  0
    4.7380   69.9310   67.2350 C   0  0  0  0  0  0  0  0  0  0  0  0
    3.6320   69.3620   66.5760 C   0  0  0  0  0  0  0  0  0  0  0  0
    5.9900   70.0510   66.6080 C   0  0  0  0  0  0  0  0  0  0  0  0
    7.0750   70.6160   67.2810 C   0  0  0  0  0  0  0  0  0  0  0  0
    6.9230   71.0700   68.5870 C   0  0  0  0  0  0  0  0  0  0  0  0
    5.6840   70.9630   69.2220 C   0  0  0  0  0  0  0  0  0  0  0  0
    0.4569   66.9403   65.6937 H   0  0  0  0  0  0  0  0  0  0  0  0
    2.1577   66.7788   66.2608 H   0  0  0  0  0  0  0  0  0  0  0  0
    2.2316   69.1768   60.2060 H   0  0  0  0  0  0  0  0  0  0  0  0
    0.0617   70.4423   60.3279 H   0  0  0  0  0  0  0  0  0  0  0  0
   -1.3041   70.3961   62.4128 H   0  0  0  0  0  0  0  0  0  0  0  0
   -0.5361   69.1048   64.4224 H   0  0  0  0  0  0  0  0  0  0  0  0
    0.4387   69.2070   66.4014 H   0  0  0  0  0  0  0  0  0  0  0  0
    1.2630   69.6785   68.9876 H   0  0  0  0  0  0  0  0  0  0  0  0
    3.1960   70.6569   70.1973 H   0  0  0  0  0  0  0  0  0  0  0  0
    3.7504   69.0222   65.5365 H   0  0  0  0  0  0  0  0  0  0  0  0
    6.1166   69.6956   65.5747 H   0  0  0  0  0  0  0  0  0  0  0  0
    8.0498   70.7021   66.7786 H   0  0  0  0  0  0  0  0  0  0  0  0
    7.7779   71.5128   69.1190 H   0  0  0  0  0  0  0  0  0  0  0  0
    5.5678   71.3256   70.2540 H   0  0  0  0  0  0  0  0  0  0  0  0
  3  2  2  0
  4  3  1  0
  5  4  2  0
  6  5  1  0
  7  6  2  0
  8  7  1  0
  9  8  2  0
  9  4  1  0
 10  9  1  0
 10  1  1  0
 11 10  1  0
 11  3  1  0
 12 11  2  0
 13  1  1  0
 14 13  1  0
 15 14  2  0
 16 15  1  0
 17 16  2  0
 18 17  1  0
 19 18  2  0
 19 14  1  0
 20 18  1  0
 21 20  2  0
 22 21  1  0
 23 17  1  0
 23 22  2  0
  1 24  1  0
  1 25  1  0
  5 26  1  0
  6 27  1  0
  7 28  1  0
  8 29  1  0
 13 30  1  0
 15 31  1  0
 16 32  1  0
 19 33  1  0
 20 34  1  0
 21 35  1  0
 22 36  1  0
 23 37  1  0
M  END
>  <score>  (4) 
-10.864

$$$$
=
     RDKit          3D

 37 40  0  0  0  0  0  0  0  0999 V2000
    3.7520   68.0090   63.4010 C   0  0  0  0  0  0  0  0  0  0  0  0
    0.1950   69.8670   60.6700 O   0  0  0  0  0  0  0  0  0  0  0  0
    0.7940   69.3920   61.6070 C   0  0  0  0  0  0  0  0  0  0  0  0
    0.2600   69.0920   62.9340 C   0  0  0  0  0  0  0  0  0  0  0  0
   -1.0210   69.2660   63.4230 C   0  0  0  0  0  0  0  0  0  0  0  0
   -1.2560   68.8640   64.7370 C   0  0  0  0  0  0  0  0  0  0  0  0
   -0.2230   68.3020   65.5110 C   0  0  0  0  0  0  0  0  0  0  0  0
    1.0670   68.1370   64.9890 C   0  0  0  0  0  0  0  0  0  0  0  0
    1.2980   68.5470   63.6880 C   0  0  0  0  0  0  0  0  0  0  0  0
    2.4860   68.4940   62.9390 N   0  0  0  0  0  0  0  0  0  0  0  0
    2.2780   68.9530   61.6490 C   0  0  0  0  0  0  0  0  0  0  0  0
    3.0430   68.9970   60.7090 O   0  0  0  0  0  0  0  0  0  0  0  0
    4.5380   69.1070   63.9360 N   0  0  0  0  0  0  0  0  0  0  0  0
    4.5850   69.3870   65.3040 C   0  0  0  0  0  0  0  0  0  0  0  0
    3.4640   69.4150   66.1360 C   0  0  0  0  0  0  0  0  0  0  0  0
    3.5700   69.7600   67.4890 C   0  0  0  0  0  0  0  0  0  0  0  0
    4.8030   70.1250   68.0440 C   0  0  0  0  0  0  0  0  0  0  0  0
    5.9410   70.1500   67.2140 C   0  0  0  0  0  0  0  0  0  0  0  0
    5.8100   69.7950   65.8580 C   0  0  0  0  0  0  0  0  0  0  0  0
    7.1780   70.5310   67.7610 C   0  0  0  0  0  0  0  0  0  0  0  0
    7.2880   70.8760   69.1090 C   0  0  0  0  0  0  0  0  0  0  0  0
    6.1630   70.8470   69.9280 C   0  0  0  0  0  0  0  0  0  0  0  0
    4.9260   70.4740   69.3980 C   0  0  0  0  0  0  0  0  0  0  0  0
    3.5895   67.2591   64.1892 H   0  0  0  0  0  0  0  0  0  0  0  0
    4.2937   67.5531   62.5592 H   0  0  0  0  0  0  0  0  0  0  0  0
   -1.8187   69.7018   62.8036 H   0  0  0  0  0  0  0  0  0  0  0  0
   -2.2582   68.9871   65.1733 H   0  0  0  0  0  0  0  0  0  0  0  0
   -0.4322   67.9868   66.5439 H   0  0  0  0  0  0  0  0  0  0  0  0
    1.8714   67.6950   65.5952 H   0  0  0  0  0  0  0  0  0  0  0  0
    5.0774   69.6974   63.2869 H   0  0  0  0  0  0  0  0  0  0  0  0
    2.4778   69.1609   65.7203 H   0  0  0  0  0  0  0  0  0  0  0  0
    2.6724   69.7441   68.1247 H   0  0  0  0  0  0  0  0  0  0  0  0
    6.6976   69.8386   65.2097 H   0  0  0  0  0  0  0  0  0  0  0  0
    8.0707   70.5577   67.1189 H   0  0  0  0  0  0  0  0  0  0  0  0
    8.2632   71.1706   69.5238 H   0  0  0  0  0  0  0  0  0  0  0  0
    6.2481   71.1174   70.9908 H   0  0  0  0  0  0  0  0  0  0  0  0
    4.0390   70.4535   70.0482 H   0  0  0  0  0  0  0  0  0  0  0  0
  3  2  2  0
  4  3  1  0
  5  4  2  0
  6  5  1  0
  7  6  2  0
  8  7  1  0
  9  8  2  0
  9  4  1  0
 10  9  1  0
 10  1  1  0
 11 10  1  0
 11  3  1  0
 12 11  2  0
 13  1  1  0
 14 13  1  0
 15 14  2  0
 16 15  1  0
 17 16  2  0
 18 17  1  0
 19 18  2  0
 19 14  1  0
 20 18  1  0
 21 20  2  0
 22 21  1  0
 23 17  1  0
 23 22  2  0
  1 24  1  0
  1 25  1  0
  5 26  1  0
  6 27  1  0
  7 28  1  0
  8 29  1  0
 13 30  1  0
 15 31  1  0
 16 32  1  0
 19 33  1  0
 20 34  1  0
 21 35  1  0
 22 36  1  0
 23 37  1  0
M  END
>  <score>  (5) 
-10.701

$$$$
=
     RDKit          3D

 37 40  0  0  0  0  0  0  0  0999 V2000
    2.6000   67.4100   64.2000 C   0  0  0  0  0  0  0  0  0  0  0  0
   -1.5600   69.4630   62.7740 O   0  0  0  0  0  0  0  0  0  0  0  0
   -0.7190   68.9310   63.4600 C   0  0  0  0  0  0  0  0  0  0  0  0
   -0.8320   68.5730   64.8730 C   0  0  0  0  0  0  0  0  0  0  0  0
   -1.8960   68.7430   65.7380 C   0  0  0  0  0  0  0  0  0  0  0  0
   -1.7320   68.2780   67.0430 C   0  0  0  0  0  0  0  0  0  0  0  0
   -0.5300   67.6610   67.4380 C   0  0  0  0  0  0  0  0  0  0  0  0
    0.5340   67.5010   66.5390 C   0  0  0  0  0  0  0  0  0  0  0  0
    0.3690   67.9730   65.2490 C   0  0  0  0  0  0  0  0  0  0  0  0
    1.2700   67.9390   64.1700 N   0  0  0  0  0  0  0  0  0  0  0  0
    0.6920   68.4660   63.0270 C   0  0  0  0  0  0  0  0  0  0  0  0
    1.1350   68.5450   61.9000 O   0  0  0  0  0  0  0  0  0  0  0  0
    3.5580   68.4640   63.9200 N   0  0  0  0  0  0  0  0  0  0  0  0
    4.2880   69.0920   64.9330 C   0  0  0  0  0  0  0  0  0  0  0  0
    5.6420   69.4210   64.8340 C   0  0  0  0  0  0  0  0  0  0  0  0
    6.3310   69.9960   65.9080 C   0  0  0  0  0  0  0  0  0  0  0  0
    5.6920   70.2270   67.1330 C   0  0  0  0  0  0  0  0  0  0  0  0
    4.3390   69.8610   67.2730 C   0  0  0  0  0  0  0  0  0  0  0  0
    3.6660   69.2870   66.1780 C   0  0  0  0  0  0  0  0  0  0  0  0
    3.6960   70.0750   68.5050 C   0  0  0  0  0  0  0  0  0  0  0  0
    4.3810   70.6480   69.5780 C   0  0  0  0  0  0  0  0  0  0  0  0
    5.7160   71.0140   69.4350 C   0  0  0  0  0  0  0  0  0  0  0  0
    6.3690   70.8030   68.2190 C   0  0  0  0  0  0  0  0  0  0  0  0
    2.8023   66.9884   65.1957 H   0  0  0  0  0  0  0  0  0  0  0  0
    2.6939   66.6235   63.4367 H   0  0  0  0  0  0  0  0  0  0  0  0
   -2.8304   69.2234   65.4123 H   0  0  0  0  0  0  0  0  0  0  0  0
   -2.5493   68.3945   67.7699 H   0  0  0  0  0  0  0  0  0  0  0  0
   -0.4235   67.2977   68.4708 H   0  0  0  0  0  0  0  0  0  0  0  0
    1.4708   67.0153   66.8497 H   0  0  0  0  0  0  0  0  0  0  0  0
    3.7044   68.7584   62.9439 H   0  0  0  0  0  0  0  0  0  0  0  0
    6.1773   69.2243   63.8934 H   0  0  0  0  0  0  0  0  0  0  0  0
    7.3895   70.2705   65.7885 H   0  0  0  0  0  0  0  0  0  0  0  0
    2.6168   68.9804   66.3011 H   0  0  0  0  0  0  0  0  0  0  0  0
    2.6410   69.7876   68.6247 H   0  0  0  0  0  0  0  0  0  0  0  0
    3.8657   70.8101   70.5362 H   0  0  0  0  0  0  0  0  0  0  0  0
    6.2559   71.4688   70.2786 H   0  0  0  0  0  0  0  0  0  0  0  0
    7.4251   71.0912   68.1111 H   0  0  0  0  0  0  0  0  0  0  0  0
  3  2  2  0
  4  3  1  0
  5  4  2  0
  6  5  1  0
  7  6  2  0
  8  7  1  0
  9  8  2  0
  9  4  1  0
 10  9  1  0
 10  1  1  0
 11 10  1  0
 11  3  1  0
 12 11  2  0
 13  1  1  0
 14 13  1  0
 15 14  2  0
 16 15  1  0
 17 16  2  0
 18 17  1  0
 19 18  2  0
 19 14  1  0
 20 18  1  0
 21 20  2  0
 22 21  1  0
 23 17  1  0
 23 22  2  0
  1 24  1  0
  1 25  1  0
  5 26  1  0
  6 27  1  0
  7 28  1  0
  8 29  1  0
 13 30  1  0
 15 31  1  0
 16 32  1  0
 19 33  1  0
 20 34  1  0
 21 35  1  0
 22 36  1  0
 23 37  1  0
M  END
>  <score>  (6) 
-10.39

$$$$
=
     RDKit          3D

 37 40  0  0  0  0  0  0  0  0999 V2000
    1.1040   67.2020   69.0100 C   0  0  0  0  0  0  0  0  0  0  0  0
   -1.9920   68.3420   65.4500 O   0  0  0  0  0  0  0  0  0  0  0  0
   -0.9670   68.1590   66.0650 C   0  0  0  0  0  0  0  0  0  0  0  0
    0.3980   68.3540   65.5810 C   0  0  0  0  0  0  0  0  0  0  0  0
    0.8350   68.7880   64.3440 C   0  0  0  0  0  0  0  0  0  0  0  0
    2.2140   68.9060   64.1660 C   0  0  0  0  0  0  0  0  0  0  0  0
    3.1010   68.5970   65.2150 C   0  0  0  0  0  0  0  0  0  0  0  0
    2.6290   68.1600   66.4600 C   0  0  0  0  0  0  0  0  0  0  0  0
    1.2620   68.0340   66.6270 C   0  0  0  0  0  0  0  0  0  0  0  0
    0.5420   67.6200   67.7610 N   0  0  0  0  0  0  0  0  0  0  0  0
   -0.8220   67.6920   67.5340 C   0  0  0  0  0  0  0  0  0  0  0  0
   -1.7470   67.4780   68.2900 O   0  0  0  0  0  0  0  0  0  0  0  0
    0.3360   66.0960   69.5540 N   0  0  0  0  0  0  0  0  0  0  0  0
    0.9320   65.0730   70.2970 C   0  0  0  0  0  0  0  0  0  0  0  0
    0.3410   64.4660   71.4070 C   0  0  0  0  0  0  0  0  0  0  0  0
    1.0160   63.4860   72.1440 C   0  0  0  0  0  0  0  0  0  0  0  0
    2.3240   63.1080   71.8130 C   0  0  0  0  0  0  0  0  0  0  0  0
    2.9590   63.7400   70.7260 C   0  0  0  0  0  0  0  0  0  0  0  0
    2.2590   64.7200   69.9970 C   0  0  0  0  0  0  0  0  0  0  0  0
    4.2770   63.3770   70.3990 C   0  0  0  0  0  0  0  0  0  0  0  0
    4.9520   62.4010   71.1320 C   0  0  0  0  0  0  0  0  0  0  0  0
    4.3210   61.7750   72.2030 C   0  0  0  0  0  0  0  0  0  0  0  0
    3.0140   62.1270   72.5420 C   0  0  0  0  0  0  0  0  0  0  0  0
    2.1441   66.8807   68.8522 H   0  0  0  0  0  0  0  0  0  0  0  0
    1.0772   68.0434   69.7180 H   0  0  0  0  0  0  0  0  0  0  0  0
    0.1281   69.0294   63.5365 H   0  0  0  0  0  0  0  0  0  0  0  0
    2.6117   69.2434   63.1975 H   0  0  0  0  0  0  0  0  0  0  0  0
    4.1843   68.7005   65.0543 H   0  0  0  0  0  0  0  0  0  0  0  0
    3.3244   67.9245   67.2791 H   0  0  0  0  0  0  0  0  0  0  0  0
   -0.6799   66.0644   69.3871 H   0  0  0  0  0  0  0  0  0  0  0  0
   -0.6743   64.7636   71.7079 H   0  0  0  0  0  0  0  0  0  0  0  0
    0.5122   63.0055   72.9956 H   0  0  0  0  0  0  0  0  0  0  0  0
    2.7681   65.2269   69.1640 H   0  0  0  0  0  0  0  0  0  0  0  0
    4.7823   63.8687   69.5547 H   0  0  0  0  0  0  0  0  0  0  0  0
    5.9828   62.1261   70.8637 H   0  0  0  0  0  0  0  0  0  0  0  0
    4.8516   61.0042   72.7812 H   0  0  0  0  0  0  0  0  0  0  0  0
    2.5192   61.6303   73.3896 H   0  0  0  0  0  0  0  0  0  0  0  0
  3  2  2  0
  4  3  1  0
  5  4  2  0
  6  5  1  0
  7  6  2  0
  8  7  1  0
  9  8  2  0
  9  4  1  0
 10  9  1  0
 10  1  1  0
 11 10  1  0
 11  3  1  0
 12 11  2  0
 13  1  1  0
 14 13  1  0
 15 14  2  0
 16 15  1  0
 17 16  2  0
 18 17  1  0
 19 18  2  0
 19 14  1  0
 20 18  1  0
 21 20  2  0
 22 21  1  0
 23 17  1  0
 23 22  2  0
  1 24  1  0
  1 25  1  0
  5 26  1  0
  6 27  1  0
  7 28  1  0
  8 29  1  0
 13 30  1  0
 15 31  1  0
 16 32  1  0
 19 33  1  0
 20 34  1  0
 21 35  1  0
 22 36  1  0
 23 37  1  0
M  END
>  <score>  (7) 
-9.697

$$$$
=
     RDKit          3D

 37 40  0  0  0  0  0  0  0  0999 V2000
    0.5930   67.9010   68.2180 C   0  0  0  0  0  0  0  0  0  0  0  0
    3.4040   67.9600   64.2610 O   0  0  0  0  0  0  0  0  0  0  0  0
    2.9780   68.1850   65.3700 C   0  0  0  0  0  0  0  0  0  0  0  0
    3.5820   69.0430   66.3880 C   0  0  0  0  0  0  0  0  0  0  0  0
    4.7450   69.7860   66.3300 C   0  0  0  0  0  0  0  0  0  0  0  0
    5.0700   70.5420   67.4560 C   0  0  0  0  0  0  0  0  0  0  0  0
    4.2340   70.5380   68.5880 C   0  0  0  0  0  0  0  0  0  0  0  0
    3.0590   69.7740   68.6200 C   0  0  0  0  0  0  0  0  0  0  0  0
    2.7470   69.0180   67.5040 C   0  0  0  0  0  0  0  0  0  0  0  0
    1.6430   68.1760   67.2840 N   0  0  0  0  0  0  0  0  0  0  0  0
    1.6720   67.6480   66.0040 C   0  0  0  0  0  0  0  0  0  0  0  0
    0.8660   66.9390   65.4390 O   0  0  0  0  0  0  0  0  0  0  0  0
    1.1570   67.5820   69.5170 N   0  0  0  0  0  0  0  0  0  0  0  0
    1.0620   66.3030   70.0730 C   0  0  0  0  0  0  0  0  0  0  0  0
    0.0810   65.9180   70.9880 C   0  0  0  0  0  0  0  0  0  0  0  0
    0.0750   64.6370   71.5530 C   0  0  0  0  0  0  0  0  0  0  0  0
    1.0780   63.7100   71.2440 C   0  0  0  0  0  0  0  0  0  0  0  0
    2.1060   64.0890   70.3590 C   0  0  0  0  0  0  0  0  0  0  0  0
    2.0880   65.3820   69.8010 C   0  0  0  0  0  0  0  0  0  0  0  0
    3.1240   63.1690   70.0580 C   0  0  0  0  0  0  0  0  0  0  0  0
    3.1220   61.8910   70.6200 C   0  0  0  0  0  0  0  0  0  0  0  0
    2.1030   61.5160   71.4900 C   0  0  0  0  0  0  0  0  0  0  0  0
    1.0860   62.4210   71.8020 C   0  0  0  0  0  0  0  0  0  0  0  0
   -0.0548   68.7853   68.3090 H   0  0  0  0  0  0  0  0  0  0  0  0
    0.0046   67.0439   67.8587 H   0  0  0  0  0  0  0  0  0  0  0  0
    5.3859   69.7816   65.4360 H   0  0  0  0  0  0  0  0  0  0  0  0
    5.9886   71.1472   67.4593 H   0  0  0  0  0  0  0  0  0  0  0  0
    4.5074   71.1453   69.4635 H   0  0  0  0  0  0  0  0  0  0  0  0
    2.4055   69.7755   69.5048 H   0  0  0  0  0  0  0  0  0  0  0  0
    1.6423   68.3210   70.0454 H   0  0  0  0  0  0  0  0  0  0  0  0
   -0.7033   66.6355   71.2710 H   0  0  0  0  0  0  0  0  0  0  0  0
   -0.7286   64.3549   72.2492 H   0  0  0  0  0  0  0  0  0  0  0  0
    2.9056   65.6814   69.1288 H   0  0  0  0  0  0  0  0  0  0  0  0
    3.9327   63.4591   69.3711 H   0  0  0  0  0  0  0  0  0  0  0  0
    3.9256   61.1809   70.3751 H   0  0  0  0  0  0  0  0  0  0  0  0
    2.0984   60.5084   71.9314 H   0  0  0  0  0  0  0  0  0  0  0  0
    0.2832   62.1213   72.4917 H   0  0  0  0  0  0  0  0  0  0  0  0
  3  2  2  0
  4  3  1  0
  5  4  2  0
  6  5  1  0
  7  6  2  0
  8  7  1  0
  9  8  2  0
  9  4  1  0
 10  9  1  0
 10  1  1  0
 11 10  1  0
 11  3  1  0
 12 11  2  0
 13  1  1  0
 14 13  1  0
 15 14  2  0
 16 15  1  0
 17 16  2  0
 18 17  1  0
 19 18  2  0
 19 14  1  0
 20 18  1  0
 21 20  2  0
 22 21  1  0
 23 17  1  0
 23 22  2  0
  1 24  1  0
  1 25  1  0
  5 26  1  0
  6 27  1  0
  7 28  1  0
  8 29  1  0
 13 30  1  0
 15 31  1  0
 16 32  1  0
 19 33  1  0
 20 34  1  0
 21 35  1  0
 22 36  1  0
 23 37  1  0
M  END
>  <score>  (8) 
-9.673

$$$$
=
     RDKit          3D

 37 40  0  0  0  0  0  0  0  0999 V2000
    1.4750   66.0780   69.8970 C   0  0  0  0  0  0  0  0  0  0  0  0
   -0.2810   63.1630   73.3590 O   0  0  0  0  0  0  0  0  0  0  0  0
    0.3530   63.5690   72.4130 C   0  0  0  0  0  0  0  0  0  0  0  0
    1.3280   62.8220   71.6200 C   0  0  0  0  0  0  0  0  0  0  0  0
    1.7430   61.5110   71.7500 C   0  0  0  0  0  0  0  0  0  0  0  0
    2.6800   61.0490   70.8250 C   0  0  0  0  0  0  0  0  0  0  0  0
    3.1620   61.8960   69.8100 C   0  0  0  0  0  0  0  0  0  0  0  0
    2.7230   63.2220   69.7010 C   0  0  0  0  0  0  0  0  0  0  0  0
    1.8020   63.6780   70.6270 C   0  0  0  0  0  0  0  0  0  0  0  0
    1.2110   64.9490   70.7380 N   0  0  0  0  0  0  0  0  0  0  0  0
    0.2890   64.9760   71.7710 C   0  0  0  0  0  0  0  0  0  0  0  0
   -0.4530   65.8680   72.1240 O   0  0  0  0  0  0  0  0  0  0  0  0
    0.2330   66.5830   69.3410 N   0  0  0  0  0  0  0  0  0  0  0  0
    0.1800   67.2130   68.0950 C   0  0  0  0  0  0  0  0  0  0  0  0
   -1.0050   67.5770   67.4520 C   0  0  0  0  0  0  0  0  0  0  0  0
   -0.9920   68.1530   66.1760 C   0  0  0  0  0  0  0  0  0  0  0  0
    0.2110   68.3500   65.4870 C   0  0  0  0  0  0  0  0  0  0  0  0
    1.4160   67.9480   66.0950 C   0  0  0  0  0  0  0  0  0  0  0  0
    1.3790   67.3740   67.3800 C   0  0  0  0  0  0  0  0  0  0  0  0
    2.6250   68.1270   65.4010 C   0  0  0  0  0  0  0  0  0  0  0  0
    2.6410   68.7010   64.1290 C   0  0  0  0  0  0  0  0  0  0  0  0
    1.4500   69.1020   63.5320 C   0  0  0  0  0  0  0  0  0  0  0  0
    0.2400   68.9270   64.2070 C   0  0  0  0  0  0  0  0  0  0  0  0
    1.9572   66.8692   70.4898 H   0  0  0  0  0  0  0  0  0  0  0  0
    2.1395   65.7699   69.0763 H   0  0  0  0  0  0  0  0  0  0  0  0
    1.3525   60.8606   72.5466 H   0  0  0  0  0  0  0  0  0  0  0  0
    3.0451   60.0134   70.8898 H   0  0  0  0  0  0  0  0  0  0  0  0
    3.8972   61.5098   69.0886 H   0  0  0  0  0  0  0  0  0  0  0  0
    3.0990   63.8801   68.9038 H   0  0  0  0  0  0  0  0  0  0  0  0
   -0.6366   66.4735   69.8820 H   0  0  0  0  0  0  0  0  0  0  0  0
   -1.9671   67.4079   67.9578 H   0  0  0  0  0  0  0  0  0  0  0  0
   -1.9405   68.4552   65.7080 H   0  0  0  0  0  0  0  0  0  0  0  0
    2.3208   67.0402   67.8400 H   0  0  0  0  0  0  0  0  0  0  0  0
    3.5703   67.8108   65.8662 H   0  0  0  0  0  0  0  0  0  0  0  0
    3.5951   68.8364   63.5985 H   0  0  0  0  0  0  0  0  0  0  0  0
    1.4614   69.5561   62.5302 H   0  0  0  0  0  0  0  0  0  0  0  0
   -0.6997   69.2443   63.7313 H   0  0  0  0  0  0  0  0  0  0  0  0
  3  2  2  0
  4  3  1  0
  5  4  2  0
  6  5  1  0
  7  6  2  0
  8  7  1  0
  9  8  2  0
  9  4  1  0
 10  9  1  0
 10  1  1  0
 11 10  1  0
 11  3  1  0
 12 11  2  0
 13  1  1  0
 14 13  1  0
 15 14  2  0
 16 15  1  0
 17 16  2  0
 18 17  1  0
 19 18  2  0
 19 14  1  0
 20 18  1  0
 21 20  2  0
 22 21  1  0
 23 17  1  0
 23 22  2  0
  1 24  1  0
  1 25  1  0
  5 26  1  0
  6 27  1  0
  7 28  1  0
  8 29  1  0
 13 30  1  0
 15 31  1  0
 16 32  1  0
 19 33  1  0
 20 34  1  0
 21 35  1  0
 22 36  1  0
 23 37  1  0
M  END
>  <score>  (9) 
-9.27

$$$$
