=
     RDKit          3D

 23 23  0  0  0  0  0  0  0  0999 V2000
    4.3210   69.4200   65.5070 C   0  0  0  0  0  0  0  0  0  0  0  0
    3.0400   69.1130   65.9790 C   0  0  0  0  0  0  0  0  0  0  0  0
    2.6840   69.4080   67.2990 C   0  0  0  0  0  0  0  0  0  0  0  0
    3.5830   70.0510   68.1540 C   0  0  0  0  0  0  0  0  0  0  0  0
    4.8790   70.3020   67.6970 C   0  0  0  0  0  0  0  0  0  0  0  0
    5.2450   70.0100   66.3780 C   0  0  0  0  0  0  0  0  0  0  0  0
    3.2630   70.2340   69.5030 N   0  0  0  0  0  0  0  0  0  0  0  0
    4.6520   69.0840   64.0950 C   0  0  0  0  0  0  0  0  0  0  0  0
    5.5390   69.6340   63.4610 O   0  0  0  0  0  0  0  0  0  0  0  0
    3.8430   68.0970   63.6360 O   0  0  0  0  0  0  0  0  0  0  0  0
    1.8920   68.6230   62.3610 C   0  0  0  0  0  0  0  0  0  0  0  0
    3.3720   68.3010   62.2980 C   0  0  0  0  0  0  0  0  0  0  0  0
    2.3092   68.6372   65.3085 H   0  0  0  0  0  0  0  0  0  0  0  0
    1.6855   69.1309   67.6681 H   0  0  0  0  0  0  0  0  0  0  0  0
    5.6219   70.7350   68.3830 H   0  0  0  0  0  0  0  0  0  0  0  0
    6.2601   70.2444   66.0251 H   0  0  0  0  0  0  0  0  0  0  0  0
    3.9281   70.7084   70.1303 H   0  0  0  0  0  0  0  0  0  0  0  0
    2.3622   69.8944   69.8693 H   0  0  0  0  0  0  0  0  0  0  0  0
    1.5761   68.6917   63.4124 H   0  0  0  0  0  0  0  0  0  0  0  0
    1.7039   69.5831   61.8581 H   0  0  0  0  0  0  0  0  0  0  0  0
    1.3220   67.8279   61.8581 H   0  0  0  0  0  0  0  0  0  0  0  0
    3.5296   67.3884   61.7045 H   0  0  0  0  0  0  0  0  0  0  0  0
    3.9210   69.1279   61.8238 H   0  0  0  0  0  0  0  0  0  0  0  0
  2  1  2  0
  3  2  1  0
  4  3  2  0
  5  4  1  0
  6  5  2  0
  6  1  1  0
  7  4  1  0
  8  1  1  0
  9  8  2  0
 10  8  1  0
 12 11  1  0
 12 10  1  0
  2 13  1  0
  3 14  1  0
  5 15  1  0
  6 16  1  0
  7 17  1  0
  7 18  1  0
 11 19  1  0
 11 20  1  0
 11 21  1  0
 12 22  1  0
 12 23  1  0
M  END
>  <score>  (1) 
-6.739

$$$$
=
     RDKit          3D

 23 23  0  0  0  0  0  0  0  0999 V2000
    4.3270   69.4940   65.6810 C   0  0  0  0  0  0  0  0  0  0  0  0
    5.4280   69.6440   64.8300 C   0  0  0  0  0  0  0  0  0  0  0  0
    5.3140   69.3440   63.4680 C   0  0  0  0  0  0  0  0  0  0  0  0
    4.0930   68.9310   62.9280 C   0  0  0  0  0  0  0  0  0  0  0  0
    3.0140   68.7270   63.7910 C   0  0  0  0  0  0  0  0  0  0  0  0
    3.1180   69.0240   65.1540 C   0  0  0  0  0  0  0  0  0  0  0  0
    4.0180   68.5180   61.5940 N   0  0  0  0  0  0  0  0  0  0  0  0
    4.4990   69.8250   67.1210 C   0  0  0  0  0  0  0  0  0  0  0  0
    3.5800   69.8380   67.9250 O   0  0  0  0  0  0  0  0  0  0  0  0
    5.7980   70.0980   67.3980 O   0  0  0  0  0  0  0  0  0  0  0  0
    7.1820   70.9630   69.1430 C   0  0  0  0  0  0  0  0  0  0  0  0
    5.9900   71.2360   68.2470 C   0  0  0  0  0  0  0  0  0  0  0  0
    6.3875   69.9994   65.2338 H   0  0  0  0  0  0  0  0  0  0  0  0
    6.1949   69.4342   62.8154 H   0  0  0  0  0  0  0  0  0  0  0  0
    2.0694   68.3273   63.3934 H   0  0  0  0  0  0  0  0  0  0  0  0
    2.2480   68.8880   65.8132 H   0  0  0  0  0  0  0  0  0  0  0  0
    3.1166   68.2142   61.1989 H   0  0  0  0  0  0  0  0  0  0  0  0
    4.8641   68.5177   61.0066 H   0  0  0  0  0  0  0  0  0  0  0  0
    6.8728   71.0338   70.1963 H   0  0  0  0  0  0  0  0  0  0  0  0
    7.5685   69.9531   68.9414 H   0  0  0  0  0  0  0  0  0  0  0  0
    7.9696   71.7040   68.9414 H   0  0  0  0  0  0  0  0  0  0  0  0
    5.0919   71.3981   68.8612 H   0  0  0  0  0  0  0  0  0  0  0  0
    6.1687   72.1364   67.6408 H   0  0  0  0  0  0  0  0  0  0  0  0
  2  1  2  0
  3  2  1  0
  4  3  2  0
  5  4  1  0
  6  5  2  0
  6  1  1  0
  7  4  1  0
  8  1  1  0
  9  8  2  0
 10  8  1  0
 12 11  1  0
 12 10  1  0
  2 13  1  0
  3 14  1  0
  5 15  1  0
  6 16  1  0
  7 17  1  0
  7 18  1  0
 11 19  1  0
 11 20  1  0
 11 21  1  0
 12 22  1  0
 12 23  1  0
M  END
>  <score>  (2) 
-6.716

$$$$
=
     RDKit          3D

 23 23  0  0  0  0  0  0  0  0999 V2000
    4.4920   69.7880   66.7800 C   0  0  0  0  0  0  0  0  0  0  0  0
    4.1720   70.1780   68.0850 C   0  0  0  0  0  0  0  0  0  0  0  0
    5.1720   70.6330   68.9510 C   0  0  0  0  0  0  0  0  0  0  0  0
    6.4950   70.7460   68.5170 C   0  0  0  0  0  0  0  0  0  0  0  0
    6.8200   70.3000   67.2330 C   0  0  0  0  0  0  0  0  0  0  0  0
    5.8260   69.8430   66.3600 C   0  0  0  0  0  0  0  0  0  0  0  0
    7.5060   71.0850   69.4220 N   0  0  0  0  0  0  0  0  0  0  0  0
    3.3930   69.3090   65.8970 C   0  0  0  0  0  0  0  0  0  0  0  0
    2.3190   68.9060   66.3150 O   0  0  0  0  0  0  0  0  0  0  0  0
    3.7560   69.3910   64.5940 O   0  0  0  0  0  0  0  0  0  0  0  0
    3.5470   68.6810   62.3220 C   0  0  0  0  0  0  0  0  0  0  0  0
    3.1930   68.3690   63.7630 C   0  0  0  0  0  0  0  0  0  0  0  0
    3.1293   70.1266   68.4316 H   0  0  0  0  0  0  0  0  0  0  0  0
    4.9137   70.9048   69.9851 H   0  0  0  0  0  0  0  0  0  0  0  0
    7.8698   70.3082   66.9045 H   0  0  0  0  0  0  0  0  0  0  0  0
    6.0939   69.5263   65.3412 H   0  0  0  0  0  0  0  0  0  0  0  0
    8.4804   71.1674   69.0985 H   0  0  0  0  0  0  0  0  0  0  0  0
    7.2762   71.2522   70.4120 H   0  0  0  0  0  0  0  0  0  0  0  0
    4.3720   69.4081   62.2963 H   0  0  0  0  0  0  0  0  0  0  0  0
    3.8568   67.7568   61.8122 H   0  0  0  0  0  0  0  0  0  0  0  0
    2.6690   69.1044   61.8122 H   0  0  0  0  0  0  0  0  0  0  0  0
    2.0996   68.3523   63.8825 H   0  0  0  0  0  0  0  0  0  0  0  0
    3.5931   67.3847   64.0478 H   0  0  0  0  0  0  0  0  0  0  0  0
  2  1  2  0
  3  2  1  0
  4  3  2  0
  5  4  1  0
  6  5  2  0
  6  1  1  0
  7  4  1  0
  8  1  1  0
  9  8  2  0
 10  8  1  0
 12 11  1  0
 12 10  1  0
  2 13  1  0
  3 14  1  0
  5 15  1  0
  6 16  1  0
  7 17  1  0
  7 18  1  0
 11 19  1  0
 11 20  1  0
 11 21  1  0
 12 22  1  0
 12 23  1  0
M  END
>  <score>  (3) 
-6.451

$$$$
=
     RDKit          3D

 23 23  0  0  0  0  0  0  0  0999 V2000
    4.9760   69.6940   65.7100 C   0  0  0  0  0  0  0  0  0  0  0  0
    5.5370   69.6450   64.4290 C   0  0  0  0  0  0  0  0  0  0  0  0
    4.7850   69.1820   63.3450 C   0  0  0  0  0  0  0  0  0  0  0  0
    3.4510   68.8010   63.5130 C   0  0  0  0  0  0  0  0  0  0  0  0
    2.9130   68.7960   64.8030 C   0  0  0  0  0  0  0  0  0  0  0  0
    3.6590   69.2570   65.8940 C   0  0  0  0  0  0  0  0  0  0  0  0
    2.7440   68.2260   62.4520 N   0  0  0  0  0  0  0  0  0  0  0  0
    5.8180   70.1930   66.8310 C   0  0  0  0  0  0  0  0  0  0  0  0
    6.9660   69.8250   67.0290 O   0  0  0  0  0  0  0  0  0  0  0  0
    5.1360   71.0980   67.5760 O   0  0  0  0  0  0  0  0  0  0  0  0
    3.5670   70.5260   69.2840 C   0  0  0  0  0  0  0  0  0  0  0  0
    5.0310   70.7560   68.9630 C   0  0  0  0  0  0  0  0  0  0  0  0
    6.5756   69.9726   64.2739 H   0  0  0  0  0  0  0  0  0  0  0  0
    5.2483   69.1170   62.3494 H   0  0  0  0  0  0  0  0  0  0  0  0
    1.8899   68.4249   64.9630 H   0  0  0  0  0  0  0  0  0  0  0  0
    3.2095   69.2759   66.8978 H   0  0  0  0  0  0  0  0  0  0  0  0
    1.7609   67.9465   62.5797 H   0  0  0  0  0  0  0  0  0  0  0  0
    3.2064   68.0821   61.5430 H   0  0  0  0  0  0  0  0  0  0  0  0
    3.4299   70.5045   70.3752 H   0  0  0  0  0  0  0  0  0  0  0  0
    2.9651   71.3406   68.8548 H   0  0  0  0  0  0  0  0  0  0  0  0
    3.2439   69.5661   68.8548 H   0  0  0  0  0  0  0  0  0  0  0  0
    5.4230   71.5780   69.5800 H   0  0  0  0  0  0  0  0  0  0  0  0
    5.6142   69.8480   69.1760 H   0  0  0  0  0  0  0  0  0  0  0  0
  2  1  2  0
  3  2  1  0
  4  3  2  0
  5  4  1  0
  6  5  2  0
  6  1  1  0
  7  4  1  0
  8  1  1  0
  9  8  2  0
 10  8  1  0
 12 11  1  0
 12 10  1  0
  2 13  1  0
  3 14  1  0
  5 15  1  0
  6 16  1  0
  7 17  1  0
  7 18  1  0
 11 19  1  0
 11 20  1  0
 11 21  1  0
 12 22  1  0
 12 23  1  0
M  END
>  <score>  (4) 
-6.411

$$$$
=
     RDKit          3D

 23 23  0  0  0  0  0  0  0  0999 V2000
    3.8980   69.4830   66.3960 C   0  0  0  0  0  0  0  0  0  0  0  0
    5.1840   69.6680   65.8760 C   0  0  0  0  0  0  0  0  0  0  0  0
    6.1860   70.2470   66.6620 C   0  0  0  0  0  0  0  0  0  0  0  0
    5.9340   70.6090   67.9880 C   0  0  0  0  0  0  0  0  0  0  0  0
    4.6340   70.4760   68.4830 C   0  0  0  0  0  0  0  0  0  0  0  0
    3.6250   69.8990   67.7040 C   0  0  0  0  0  0  0  0  0  0  0  0
    6.9030   71.2950   68.7270 N   0  0  0  0  0  0  0  0  0  0  0  0
    2.8660   68.8650   65.5200 C   0  0  0  0  0  0  0  0  0  0  0  0
    2.7380   69.1320   64.3350 O   0  0  0  0  0  0  0  0  0  0  0  0
    2.1110   67.9810   66.2190 O   0  0  0  0  0  0  0  0  0  0  0  0
    0.0890   68.8520   67.1460 C   0  0  0  0  0  0  0  0  0  0  0  0
    0.7030   68.0970   65.9830 C   0  0  0  0  0  0  0  0  0  0  0  0
    5.4079   69.3569   64.8450 H   0  0  0  0  0  0  0  0  0  0  0  0
    7.1835   70.4193   66.2314 H   0  0  0  0  0  0  0  0  0  0  0  0
    4.4009   70.8295   69.4982 H   0  0  0  0  0  0  0  0  0  0  0  0
    2.6149   69.7721   68.1207 H   0  0  0  0  0  0  0  0  0  0  0  0
    6.7134   71.5601   69.7041 H   0  0  0  0  0  0  0  0  0  0  0  0
    7.8063   71.5352   68.2942 H   0  0  0  0  0  0  0  0  0  0  0  0
    0.4424   68.4175   68.0927 H   0  0  0  0  0  0  0  0  0  0  0  0
    0.3864   69.9098   67.0944 H   0  0  0  0  0  0  0  0  0  0  0  0
   -1.0072   68.7764   67.0944 H   0  0  0  0  0  0  0  0  0  0  0  0
    0.2538   67.0956   65.9102 H   0  0  0  0  0  0  0  0  0  0  0  0
    0.5183   68.6341   65.0410 H   0  0  0  0  0  0  0  0  0  0  0  0
  2  1  2  0
  3  2  1  0
  4  3  2  0
  5  4  1  0
  6  5  2  0
  6  1  1  0
  7  4  1  0
  8  1  1  0
  9  8  2  0
 10  8  1  0
 12 11  1  0
 12 10  1  0
  2 13  1  0
  3 14  1  0
  5 15  1  0
  6 16  1  0
  7 17  1  0
  7 18  1  0
 11 19  1  0
 11 20  1  0
 11 21  1  0
 12 22  1  0
 12 23  1  0
M  END
>  <score>  (5) 
-6.359

$$$$
=
     RDKit          3D

 23 23  0  0  0  0  0  0  0  0999 V2000
    3.9300   69.1910   65.8200 C   0  0  0  0  0  0  0  0  0  0  0  0
    3.3900   69.5150   67.0690 C   0  0  0  0  0  0  0  0  0  0  0  0
    4.1740   70.1600   68.0310 C   0  0  0  0  0  0  0  0  0  0  0  0
    5.4920   70.5300   67.7470 C   0  0  0  0  0  0  0  0  0  0  0  0
    6.0440   70.1530   66.5200 C   0  0  0  0  0  0  0  0  0  0  0  0
    5.2670   69.5060   65.5520 C   0  0  0  0  0  0  0  0  0  0  0  0
    6.3050   71.0650   68.7520 N   0  0  0  0  0  0  0  0  0  0  0  0
    3.0560   68.5030   64.8310 C   0  0  0  0  0  0  0  0  0  0  0  0
    2.0540   69.0090   64.3480 O   0  0  0  0  0  0  0  0  0  0  0  0
    3.5300   67.2630   64.5540 O   0  0  0  0  0  0  0  0  0  0  0  0
    3.3110   64.8870   64.6760 C   0  0  0  0  0  0  0  0  0  0  0  0
    2.5780   66.2120   64.7550 C   0  0  0  0  0  0  0  0  0  0  0  0
    2.3439   69.2613   67.2957 H   0  0  0  0  0  0  0  0  0  0  0  0
    3.7490   70.3785   69.0218 H   0  0  0  0  0  0  0  0  0  0  0  0
    7.1027   70.3674   66.3121 H   0  0  0  0  0  0  0  0  0  0  0  0
    5.7081   69.2446   64.5788 H   0  0  0  0  0  0  0  0  0  0  0  0
    7.2755   71.3365   68.5393 H   0  0  0  0  0  0  0  0  0  0  0  0
    5.9330   71.1874   69.7047 H   0  0  0  0  0  0  0  0  0  0  0  0
    3.5144   64.5193   65.6926 H   0  0  0  0  0  0  0  0  0  0  0  0
    2.6893   64.1555   64.1391 H   0  0  0  0  0  0  0  0  0  0  0  0
    4.2611   65.0250   64.1391 H   0  0  0  0  0  0  0  0  0  0  0  0
    1.8040   66.2564   63.9746 H   0  0  0  0  0  0  0  0  0  0  0  0
    2.0941   66.3205   65.7369 H   0  0  0  0  0  0  0  0  0  0  0  0
  2  1  2  0
  3  2  1  0
  4  3  2  0
  5  4  1  0
  6  5  2  0
  6  1  1  0
  7  4  1  0
  8  1  1  0
  9  8  2  0
 10  8  1  0
 12 11  1  0
 12 10  1  0
  2 13  1  0
  3 14  1  0
  5 15  1  0
  6 16  1  0
  7 17  1  0
  7 18  1  0
 11 19  1  0
 11 20  1  0
 11 21  1  0
 12 22  1  0
 12 23  1  0
M  END
>  <score>  (6) 
-6.335

$$$$
=
     RDKit          3D

 23 23  0  0  0  0  0  0  0  0999 V2000
    2.5610   68.7420   65.1310 C   0  0  0  0  0  0  0  0  0  0  0  0
    2.8060   69.0840   66.4660 C   0  0  0  0  0  0  0  0  0  0  0  0
    4.0550   69.5850   66.8480 C   0  0  0  0  0  0  0  0  0  0  0  0
    5.0610   69.7930   65.9010 C   0  0  0  0  0  0  0  0  0  0  0  0
    4.8310   69.3960   64.5810 C   0  0  0  0  0  0  0  0  0  0  0  0
    3.5860   68.8930   64.1900 C   0  0  0  0  0  0  0  0  0  0  0  0
    6.3420   70.1790   66.3090 N   0  0  0  0  0  0  0  0  0  0  0  0
    1.2170   68.2110   64.7750 C   0  0  0  0  0  0  0  0  0  0  0  0
    0.8390   67.0850   65.0600 O   0  0  0  0  0  0  0  0  0  0  0  0
    0.4950   69.1450   64.1080 O   0  0  0  0  0  0  0  0  0  0  0  0
    0.5940   69.4960   61.7470 C   0  0  0  0  0  0  0  0  0  0  0  0
   -0.0430   68.6890   62.8600 C   0  0  0  0  0  0  0  0  0  0  0  0
    2.0130   68.9583   67.2179 H   0  0  0  0  0  0  0  0  0  0  0  0
    4.2472   69.8178   67.9058 H   0  0  0  0  0  0  0  0  0  0  0  0
    5.6396   69.4802   63.8400 H   0  0  0  0  0  0  0  0  0  0  0  0
    3.4119   68.6153   63.1400 H   0  0  0  0  0  0  0  0  0  0  0  0
    7.0815   70.3316   65.6084 H   0  0  0  0  0  0  0  0  0  0  0  0
    6.5458   70.3107   67.3100 H   0  0  0  0  0  0  0  0  0  0  0  0
    1.2202   70.2893   62.1814 H   0  0  0  0  0  0  0  0  0  0  0  0
    1.2171   68.8358   61.1258 H   0  0  0  0  0  0  0  0  0  0  0  0
   -0.1928   69.9488   61.1258 H   0  0  0  0  0  0  0  0  0  0  0  0
   -1.1332   68.8350   62.8489 H   0  0  0  0  0  0  0  0  0  0  0  0
    0.1697   67.6185   62.7229 H   0  0  0  0  0  0  0  0  0  0  0  0
  2  1  2  0
  3  2  1  0
  4  3  2  0
  5  4  1  0
  6  5  2  0
  6  1  1  0
  7  4  1  0
  8  1  1  0
  9  8  2  0
 10  8  1  0
 12 11  1  0
 12 10  1  0
  2 13  1  0
  3 14  1  0
  5 15  1  0
  6 16  1  0
  7 17  1  0
  7 18  1  0
 11 19  1  0
 11 20  1  0
 11 21  1  0
 12 22  1  0
 12 23  1  0
M  END
>  <score>  (7) 
-6.318

$$$$
=
     RDKit          3D

 23 23  0  0  0  0  0  0  0  0999 V2000
    3.8970   69.0800   64.3280 C   0  0  0  0  0  0  0  0  0  0  0  0
    5.1960   69.5690   64.5060 C   0  0  0  0  0  0  0  0  0  0  0  0
    5.6320   69.9710   65.7730 C   0  0  0  0  0  0  0  0  0  0  0  0
    4.7960   69.8510   66.8870 C   0  0  0  0  0  0  0  0  0  0  0  0
    3.4820   69.4180   66.6950 C   0  0  0  0  0  0  0  0  0  0  0  0
    3.0360   69.0150   65.4310 C   0  0  0  0  0  0  0  0  0  0  0  0
    5.1950   70.3650   68.1250 N   0  0  0  0  0  0  0  0  0  0  0  0
    3.4800   68.6670   62.9600 C   0  0  0  0  0  0  0  0  0  0  0  0
    4.2110   68.7280   61.9840 O   0  0  0  0  0  0  0  0  0  0  0  0
    2.1990   68.2220   62.9650 O   0  0  0  0  0  0  0  0  0  0  0  0
    0.0420   69.2340   62.7900 C   0  0  0  0  0  0  0  0  0  0  0  0
    1.3330   68.9190   62.0610 C   0  0  0  0  0  0  0  0  0  0  0  0
    5.8777   69.6376   63.6454 H   0  0  0  0  0  0  0  0  0  0  0  0
    6.6435   70.3860   65.8940 H   0  0  0  0  0  0  0  0  0  0  0  0
    2.7885   69.3934   67.5485 H   0  0  0  0  0  0  0  0  0  0  0  0
    2.0074   68.6465   65.3035 H   0  0  0  0  0  0  0  0  0  0  0  0
    4.5764   70.2748   68.9436 H   0  0  0  0  0  0  0  0  0  0  0  0
    6.1074   70.8338   68.2181 H   0  0  0  0  0  0  0  0  0  0  0  0
    0.2143   69.1920   63.8756 H   0  0  0  0  0  0  0  0  0  0  0  0
   -0.2997   70.2419   62.5117 H   0  0  0  0  0  0  0  0  0  0  0  0
   -0.7255   68.4968   62.5117 H   0  0  0  0  0  0  0  0  0  0  0  0
    1.1218   68.2870   61.1858 H   0  0  0  0  0  0  0  0  0  0  0  0
    1.8113   69.8478   61.7167 H   0  0  0  0  0  0  0  0  0  0  0  0
  2  1  2  0
  3  2  1  0
  4  3  2  0
  5  4  1  0
  6  5  2  0
  6  1  1  0
  7  4  1  0
  8  1  1  0
  9  8  2  0
 10  8  1  0
 12 11  1  0
 12 10  1  0
  2 13  1  0
  3 14  1  0
  5 15  1  0
  6 16  1  0
  7 17  1  0
  7 18  1  0
 11 19  1  0
 11 20  1  0
 11 21  1  0
 12 22  1  0
 12 23  1  0
M  END
>  <score>  (8) 
-6.304

$$$$
=
     RDKit          3D

 23 23  0  0  0  0  0  0  0  0999 V2000
    2.5630   68.8430   65.7650 C   0  0  0  0  0  0  0  0  0  0  0  0
    3.4250   68.9140   64.6660 C   0  0  0  0  0  0  0  0  0  0  0  0
    4.7160   69.4330   64.8120 C   0  0  0  0  0  0  0  0  0  0  0  0
    5.1800   69.8490   66.0630 C   0  0  0  0  0  0  0  0  0  0  0  0
    4.2960   69.8310   67.1450 C   0  0  0  0  0  0  0  0  0  0  0  0
    3.0030   69.3140   67.0080 C   0  0  0  0  0  0  0  0  0  0  0  0
    6.4240   70.4770   66.1790 N   0  0  0  0  0  0  0  0  0  0  0  0
    1.1990   68.2840   65.5570 C   0  0  0  0  0  0  0  0  0  0  0  0
    0.8950   67.5830   64.6050 O   0  0  0  0  0  0  0  0  0  0  0  0
    0.3700   68.6600   66.5620 O   0  0  0  0  0  0  0  0  0  0  0  0
   -1.8150   67.7950   66.9910 C   0  0  0  0  0  0  0  0  0  0  0  0
   -0.3280   67.5740   67.1840 C   0  0  0  0  0  0  0  0  0  0  0  0
    3.0861   68.5598   63.6813 H   0  0  0  0  0  0  0  0  0  0  0  0
    5.3726   69.5145   63.9332 H   0  0  0  0  0  0  0  0  0  0  0  0
    4.6210   70.2287   68.1177 H   0  0  0  0  0  0  0  0  0  0  0  0
    2.3311   69.2775   67.8782 H   0  0  0  0  0  0  0  0  0  0  0  0
    6.7627   70.7822   67.1026 H   0  0  0  0  0  0  0  0  0  0  0  0
    7.0016   70.6343   65.3408 H   0  0  0  0  0  0  0  0  0  0  0  0
   -2.3054   67.8679   67.9730 H   0  0  0  0  0  0  0  0  0  0  0  0
   -1.9774   68.7271   66.4300 H   0  0  0  0  0  0  0  0  0  0  0  0
   -2.2415   66.9504   66.4300 H   0  0  0  0  0  0  0  0  0  0  0  0
   -0.0919   67.5459   68.2580 H   0  0  0  0  0  0  0  0  0  0  0  0
   -0.0239   66.6182   66.7323 H   0  0  0  0  0  0  0  0  0  0  0  0
  2  1  2  0
  3  2  1  0
  4  3  2  0
  5  4  1  0
  6  5  2  0
  6  1  1  0
  7  4  1  0
  8  1  1  0
  9  8  2  0
 10  8  1  0
 12 11  1  0
 12 10  1  0
  2 13  1  0
  3 14  1  0
  5 15  1  0
  6 16  1  0
  7 17  1  0
  7 18  1  0
 11 19  1  0
 11 20  1  0
 11 21  1  0
 12 22  1  0
 12 23  1  0
M  END
>  <score>  (9) 
-6.286

$$$$
