=
     RDKit          3D

 82 87  0  0  0  0  0  0  0  0999 V2000
    0.3900   64.9440   71.0520 C   0  0  0  0  0  0  0  0  0  0  0  0
    0.1020   63.4650   70.7720 C   0  0  0  0  0  0  0  0  0  0  0  0
   -0.3890   62.6580   71.9760 C   0  0  0  0  0  0  0  0  0  0  0  0
    0.7100   62.4560   72.9340 N   0  0  0  0  0  0  0  0  0  0  0  0
    1.3130   57.6210   73.2790 C   0  0  0  0  0  0  0  0  0  0  0  0
    0.0280   57.4660   73.8120 C   0  0  0  0  0  0  0  0  0  0  0  0
   -0.7920   58.5720   73.9820 C   0  0  0  0  0  0  0  0  0  0  0  0
   -0.3310   59.8290   73.6000 C   0  0  0  0  0  0  0  0  0  0  0  0
    0.9560   60.0080   73.0390 C   0  0  0  0  0  0  0  0  0  0  0  0
    1.7770   58.8810   72.8530 C   0  0  0  0  0  0  0  0  0  0  0  0
    3.0080   58.9730   72.3080 N   0  0  0  0  0  0  0  0  0  0  0  0
    3.4640   60.1800   71.8990 C   0  0  0  0  0  0  0  0  0  0  0  0
    4.8280   60.1530   71.2570 C   0  0  0  0  0  0  0  0  0  0  0  0
    5.5050   61.5170   71.2240 C   0  0  0  0  0  0  0  0  0  0  0  0
    4.5400   62.5530   70.6700 C   0  0  0  0  0  0  0  0  0  0  0  0
    3.3140   62.6800   71.5750 C   0  0  0  0  0  0  0  0  0  0  0  0
    2.7270   61.3610   72.0200 C   0  0  0  0  0  0  0  0  0  0  0  0
    1.4550   61.2740   72.6250 C   0  0  0  0  0  0  0  0  0  0  0  0
    2.0800   56.4550   73.0050 N   0  0  0  0  0  0  0  0  0  0  0  0
    1.5360   65.5650   70.2460 C   0  0  0  0  0  0  0  0  0  0  0  0
    1.1670   66.8870   69.5700 C   0  0  0  0  0  0  0  0  0  0  0  0
   -0.1250   66.8080   68.7520 C   0  0  0  0  0  0  0  0  0  0  0  0
   -0.0080   67.4610   67.3700 C   0  0  0  0  0  0  0  0  0  0  0  0
    1.4470   67.6340   66.9260 C   0  0  0  0  0  0  0  0  0  0  0  0
    1.7240   69.0540   66.6720 N   0  0  0  0  0  0  0  0  0  0  0  0
    3.0920   69.2680   66.3220 C   0  0  0  0  0  0  0  0  0  0  0  0
    3.4860   69.0400   64.9880 C   0  0  0  0  0  0  0  0  0  0  0  0
    2.5060   68.5190   63.9640 C   0  0  0  0  0  0  0  0  0  0  0  0
    3.1670   67.9860   62.6930 C   0  0  0  0  0  0  0  0  0  0  0  0
    4.2300   68.9570   62.2010 C   0  0  0  0  0  0  0  0  0  0  0  0
    5.3280   69.0980   63.2480 C   0  0  0  0  0  0  0  0  0  0  0  0
    4.8010   69.3430   64.6390 C   0  0  0  0  0  0  0  0  0  0  0  0
    5.7100   69.8190   65.5220 N   0  0  0  0  0  0  0  0  0  0  0  0
    5.3360   70.0320   66.7910 C   0  0  0  0  0  0  0  0  0  0  0  0
    4.0300   69.7820   67.2610 C   0  0  0  0  0  0  0  0  0  0  0  0
    3.7420   70.0580   68.6230 C   0  0  0  0  0  0  0  0  0  0  0  0
    4.7160   70.5590   69.4870 C   0  0  0  0  0  0  0  0  0  0  0  0
    5.9950   70.7930   69.0100 C   0  0  0  0  0  0  0  0  0  0  0  0
    6.2890   70.5290   67.6710 C   0  0  0  0  0  0  0  0  0  0  0  0
   -0.5249   65.5135   70.8315 H   0  0  0  0  0  0  0  0  0  0  0  0
    0.7048   64.9927   72.1049 H   0  0  0  0  0  0  0  0  0  0  0  0
   -0.6684   63.4106   69.9887 H   0  0  0  0  0  0  0  0  0  0  0  0
    1.0622   63.0176   70.4754 H   0  0  0  0  0  0  0  0  0  0  0  0
   -1.2064   63.2035   72.4703 H   0  0  0  0  0  0  0  0  0  0  0  0
   -0.7479   61.6778   71.6292 H   0  0  0  0  0  0  0  0  0  0  0  0
    0.9160   63.0838   73.7241 H   0  0  0  0  0  0  0  0  0  0  0  0
   -0.3320   56.4662   74.0963 H   0  0  0  0  0  0  0  0  0  0  0  0
   -1.7968   58.4570   74.4145 H   0  0  0  0  0  0  0  0  0  0  0  0
   -0.9829   60.7043   73.7376 H   0  0  0  0  0  0  0  0  0  0  0  0
    5.4670   59.4596   71.8235 H   0  0  0  0  0  0  0  0  0  0  0  0
    4.6910   59.8317   70.2139 H   0  0  0  0  0  0  0  0  0  0  0  0
    5.8027   61.8026   72.2437 H   0  0  0  0  0  0  0  0  0  0  0  0
    6.3957   61.4669   70.5804 H   0  0  0  0  0  0  0  0  0  0  0  0
    5.0487   63.5265   70.6107 H   0  0  0  0  0  0  0  0  0  0  0  0
    4.2123   62.2351   69.6692 H   0  0  0  0  0  0  0  0  0  0  0  0
    3.6055   63.2467   72.4716 H   0  0  0  0  0  0  0  0  0  0  0  0
    2.5372   63.1850   70.9820 H   0  0  0  0  0  0  0  0  0  0  0  0
    3.0283   56.5428   72.6126 H   0  0  0  0  0  0  0  0  0  0  0  0
    1.6872   55.5228   73.1990 H   0  0  0  0  0  0  0  0  0  0  0  0
    2.3806   65.7470   70.9269 H   0  0  0  0  0  0  0  0  0  0  0  0
    1.7879   64.8540   69.4454 H   0  0  0  0  0  0  0  0  0  0  0  0
    1.0413   67.6541   70.3483 H   0  0  0  0  0  0  0  0  0  0  0  0
    1.9803   67.1346   68.8720 H   0  0  0  0  0  0  0  0  0  0  0  0
   -0.3883   65.7486   68.6165 H   0  0  0  0  0  0  0  0  0  0  0  0
   -0.8974   67.3590   69.3086 H   0  0  0  0  0  0  0  0  0  0  0  0
   -0.5284   66.8287   66.6356 H   0  0  0  0  0  0  0  0  0  0  0  0
   -0.4600   68.4619   67.4333 H   0  0  0  0  0  0  0  0  0  0  0  0
    2.1166   67.2672   67.7179 H   0  0  0  0  0  0  0  0  0  0  0  0
    1.6158   67.0602   66.0029 H   0  0  0  0  0  0  0  0  0  0  0  0
    1.0193   69.8023   66.7381 H   0  0  0  0  0  0  0  0  0  0  0  0
    1.9267   67.7036   64.4218 H   0  0  0  0  0  0  0  0  0  0  0  0
    1.8738   69.3679   63.6646 H   0  0  0  0  0  0  0  0  0  0  0  0
    3.6354   67.0143   62.9082 H   0  0  0  0  0  0  0  0  0  0  0  0
    2.3999   67.8713   61.9130 H   0  0  0  0  0  0  0  0  0  0  0  0
    4.6653   68.5776   61.2648 H   0  0  0  0  0  0  0  0  0  0  0  0
    3.7689   69.9401   62.0251 H   0  0  0  0  0  0  0  0  0  0  0  0
    5.9213   68.1717   63.2580 H   0  0  0  0  0  0  0  0  0  0  0  0
    5.9310   69.9750   62.9701 H   0  0  0  0  0  0  0  0  0  0  0  0
    2.7277   69.8727   69.0061 H   0  0  0  0  0  0  0  0  0  0  0  0
    4.4701   70.7666   70.5389 H   0  0  0  0  0  0  0  0  0  0  0  0
    6.7736   71.1841   69.6814 H   0  0  0  0  0  0  0  0  0  0  0  0
    7.3071   70.7205   67.3013 H   0  0  0  0  0  0  0  0  0  0  0  0
  2  1  1  0
  3  2  1  0
  4  3  1  0
  6  5  2  0
  7  6  1  0
  8  7  2  0
  9  8  1  0
 10  5  1  0
 10  9  2  0
 11 10  1  0
 12 11  2  0
 13 12  1  0
 14 13  1  0
 15 14  1  0
 16 15  1  0
 17 16  1  0
 17 12  1  0
 18 17  2  0
 18  9  1  0
 18  4  1  0
 19  5  1  0
 20  1  1  0
 21 20  1  0
 22 21  1  0
 23 22  1  0
 24 23  1  0
 25 24  1  0
 26 25  1  0
 27 26  1  0
 28 27  1  0
 29 28  1  0
 30 29  1  0
 31 30  1  0
 32 31  1  0
 32 27  2  0
 33 32  1  0
 34 33  2  0
 35 34  1  0
 35 26  2  0
 36 35  1  0
 37 36  2  0
 38 37  1  0
 39 34  1  0
 39 38  2  0
  1 40  1  0
  1 41  1  0
  2 42  1  0
  2 43  1  0
  3 44  1  0
  3 45  1  0
  4 46  1  0
  6 47  1  0
  7 48  1  0
  8 49  1  0
 13 50  1  0
 13 51  1  0
 14 52  1  0
 14 53  1  0
 15 54  1  0
 15 55  1  0
 16 56  1  0
 16 57  1  0
 19 58  1  0
 19 59  1  0
 20 60  1  0
 20 61  1  0
 21 62  1  0
 21 63  1  0
 22 64  1  0
 22 65  1  0
 23 66  1  0
 23 67  1  0
 24 68  1  0
 24 69  1  0
 25 70  1  0
 28 71  1  0
 28 72  1  0
 29 73  1  0
 29 74  1  0
 30 75  1  0
 30 76  1  0
 31 77  1  0
 31 78  1  0
 36 79  1  0
 37 80  1  0
 38 81  1  0
 39 82  1  0
M  END
>  <score>  (1) 
-12.677

$$$$
=
     RDKit          3D

 82 87  0  0  0  0  0  0  0  0999 V2000
   -0.1760   66.8300   68.4930 C   0  0  0  0  0  0  0  0  0  0  0  0
   -0.3060   67.5190   67.1300 C   0  0  0  0  0  0  0  0  0  0  0  0
    0.9790   67.5690   66.3000 C   0  0  0  0  0  0  0  0  0  0  0  0
    1.3290   68.9650   65.9900 N   0  0  0  0  0  0  0  0  0  0  0  0
    5.5850   70.4280   67.8880 C   0  0  0  0  0  0  0  0  0  0  0  0
    5.0070   70.5790   69.1530 C   0  0  0  0  0  0  0  0  0  0  0  0
    3.6660   70.2770   69.3440 C   0  0  0  0  0  0  0  0  0  0  0  0
    2.9120   69.8040   68.2730 C   0  0  0  0  0  0  0  0  0  0  0  0
    3.4810   69.6230   66.9900 C   0  0  0  0  0  0  0  0  0  0  0  0
    4.8450   69.9160   66.8040 C   0  0  0  0  0  0  0  0  0  0  0  0
    5.4570   69.7490   65.6150 N   0  0  0  0  0  0  0  0  0  0  0  0
    4.7530   69.2610   64.5670 C   0  0  0  0  0  0  0  0  0  0  0  0
    5.5540   69.0670   63.3050 C   0  0  0  0  0  0  0  0  0  0  0  0
    4.6910   68.9640   62.0540 C   0  0  0  0  0  0  0  0  0  0  0  0
    3.5760   67.9550   62.2840 C   0  0  0  0  0  0  0  0  0  0  0  0
    2.6670   68.4160   63.4230 C   0  0  0  0  0  0  0  0  0  0  0  0
    3.4000   68.9210   64.6430 C   0  0  0  0  0  0  0  0  0  0  0  0
    2.7460   69.1310   65.8760 C   0  0  0  0  0  0  0  0  0  0  0  0
    6.9870   70.6300   67.7530 N   0  0  0  0  0  0  0  0  0  0  0  0
    1.1410   67.0710   69.2390 C   0  0  0  0  0  0  0  0  0  0  0  0
    1.5120   65.9470   70.2080 C   0  0  0  0  0  0  0  0  0  0  0  0
    0.3190   65.0700   70.6020 C   0  0  0  0  0  0  0  0  0  0  0  0
    0.0340   65.0780   72.1080 C   0  0  0  0  0  0  0  0  0  0  0  0
    0.4150   63.7580   72.7830 C   0  0  0  0  0  0  0  0  0  0  0  0
    0.3460   62.6620   71.8080 N   0  0  0  0  0  0  0  0  0  0  0  0
    1.2620   61.6150   72.1280 C   0  0  0  0  0  0  0  0  0  0  0  0
    0.7680   60.4700   72.7840 C   0  0  0  0  0  0  0  0  0  0  0  0
   -0.6800   60.3740   73.2010 C   0  0  0  0  0  0  0  0  0  0  0  0
   -0.9610   59.2580   74.2070 C   0  0  0  0  0  0  0  0  0  0  0  0
   -0.2810   57.9680   73.7710 C   0  0  0  0  0  0  0  0  0  0  0  0
    1.2300   58.1660   73.7340 C   0  0  0  0  0  0  0  0  0  0  0  0
    1.6530   59.4160   73.0060 C   0  0  0  0  0  0  0  0  0  0  0  0
    2.9560   59.4550   72.6430 N   0  0  0  0  0  0  0  0  0  0  0  0
    3.4270   60.5460   72.0220 C   0  0  0  0  0  0  0  0  0  0  0  0
    2.6260   61.6690   71.7250 C   0  0  0  0  0  0  0  0  0  0  0  0
    3.2270   62.7630   71.0500 C   0  0  0  0  0  0  0  0  0  0  0  0
    4.5740   62.7460   70.6890 C   0  0  0  0  0  0  0  0  0  0  0  0
    5.3470   61.6380   70.9940 C   0  0  0  0  0  0  0  0  0  0  0  0
    4.7660   60.5530   71.6530 C   0  0  0  0  0  0  0  0  0  0  0  0
   -0.9964   67.1885   69.1321 H   0  0  0  0  0  0  0  0  0  0  0  0
   -0.2092   65.7501   68.2864 H   0  0  0  0  0  0  0  0  0  0  0  0
   -1.0669   66.9793   66.5471 H   0  0  0  0  0  0  0  0  0  0  0  0
   -0.5741   68.5648   67.3409 H   0  0  0  0  0  0  0  0  0  0  0  0
    1.7983   67.1069   66.8703 H   0  0  0  0  0  0  0  0  0  0  0  0
    0.8208   67.0209   65.3595 H   0  0  0  0  0  0  0  0  0  0  0  0
    0.6430   69.7239   65.8706 H   0  0  0  0  0  0  0  0  0  0  0  0
    5.6156   70.9372   69.9964 H   0  0  0  0  0  0  0  0  0  0  0  0
    3.2027   70.4101   70.3328 H   0  0  0  0  0  0  0  0  0  0  0  0
    1.8494   69.5655   68.4279 H   0  0  0  0  0  0  0  0  0  0  0  0
    6.2360   69.9222   63.1893 H   0  0  0  0  0  0  0  0  0  0  0  0
    6.0964   68.1154   63.4062 H   0  0  0  0  0  0  0  0  0  0  0  0
    4.2535   69.9479   61.8292 H   0  0  0  0  0  0  0  0  0  0  0  0
    5.3123   68.6349   61.2080 H   0  0  0  0  0  0  0  0  0  0  0  0
    2.9818   67.8554   61.3637 H   0  0  0  0  0  0  0  0  0  0  0  0
    4.0216   66.9859   62.5529 H   0  0  0  0  0  0  0  0  0  0  0  0
    2.0278   69.2278   63.0456 H   0  0  0  0  0  0  0  0  0  0  0  0
    2.0953   67.5329   63.7444 H   0  0  0  0  0  0  0  0  0  0  0  0
    7.4362   70.5247   66.8321 H   0  0  0  0  0  0  0  0  0  0  0  0
    7.5527   70.8815   68.5762 H   0  0  0  0  0  0  0  0  0  0  0  0
    1.9473   67.1707   68.4974 H   0  0  0  0  0  0  0  0  0  0  0  0
    1.0087   67.9832   69.8394 H   0  0  0  0  0  0  0  0  0  0  0  0
    2.2711   65.3102   69.7303 H   0  0  0  0  0  0  0  0  0  0  0  0
    1.8876   66.4195   71.1276 H   0  0  0  0  0  0  0  0  0  0  0  0
   -0.5740   65.4377   70.0754 H   0  0  0  0  0  0  0  0  0  0  0  0
    0.5676   64.0356   70.3222 H   0  0  0  0  0  0  0  0  0  0  0  0
    0.6113   65.8912   72.5721 H   0  0  0  0  0  0  0  0  0  0  0  0
   -1.0481   65.2226   72.2429 H   0  0  0  0  0  0  0  0  0  0  0  0
    1.4392   63.8319   73.1773 H   0  0  0  0  0  0  0  0  0  0  0  0
   -0.2858   63.5559   73.6064 H   0  0  0  0  0  0  0  0  0  0  0  0
   -0.2851   62.6502   70.9941 H   0  0  0  0  0  0  0  0  0  0  0  0
   -0.9742   61.3319   73.6549 H   0  0  0  0  0  0  0  0  0  0  0  0
   -1.2589   60.1411   72.2951 H   0  0  0  0  0  0  0  0  0  0  0  0
   -0.5769   59.5546   75.1942 H   0  0  0  0  0  0  0  0  0  0  0  0
   -2.0467   59.0894   74.2593 H   0  0  0  0  0  0  0  0  0  0  0  0
   -0.5267   57.1670   74.4838 H   0  0  0  0  0  0  0  0  0  0  0  0
   -0.6353   57.6929   72.7666 H   0  0  0  0  0  0  0  0  0  0  0  0
    1.5994   58.2233   74.7685 H   0  0  0  0  0  0  0  0  0  0  0  0
    1.6557   57.3121   73.1867 H   0  0  0  0  0  0  0  0  0  0  0  0
    2.6164   63.6448   70.8059 H   0  0  0  0  0  0  0  0  0  0  0  0
    5.0189   63.6056   70.1663 H   0  0  0  0  0  0  0  0  0  0  0  0
    6.4117   61.6130   70.7188 H   0  0  0  0  0  0  0  0  0  0  0  0
    5.3880   59.6765   71.8873 H   0  0  0  0  0  0  0  0  0  0  0  0
  2  1  1  0
  3  2  1  0
  4  3  1  0
  6  5  2  0
  7  6  1  0
  8  7  2  0
  9  8  1  0
 10  5  1  0
 10  9  2  0
 11 10  1  0
 12 11  2  0
 13 12  1  0
 14 13  1  0
 15 14  1  0
 16 15  1  0
 17 16  1  0
 17 12  1  0
 18 17  2  0
 18  9  1  0
 18  4  1  0
 19  5  1  0
 20  1  1  0
 21 20  1  0
 22 21  1  0
 23 22  1  0
 24 23  1  0
 25 24  1  0
 26 25  1  0
 27 26  1  0
 28 27  1  0
 29 28  1  0
 30 29  1  0
 31 30  1  0
 32 31  1  0
 32 27  2  0
 33 32  1  0
 34 33  2  0
 35 34  1  0
 35 26  2  0
 36 35  1  0
 37 36  2  0
 38 37  1  0
 39 34  1  0
 39 38  2  0
  1 40  1  0
  1 41  1  0
  2 42  1  0
  2 43  1  0
  3 44  1  0
  3 45  1  0
  4 46  1  0
  6 47  1  0
  7 48  1  0
  8 49  1  0
 13 50  1  0
 13 51  1  0
 14 52  1  0
 14 53  1  0
 15 54  1  0
 15 55  1  0
 16 56  1  0
 16 57  1  0
 19 58  1  0
 19 59  1  0
 20 60  1  0
 20 61  1  0
 21 62  1  0
 21 63  1  0
 22 64  1  0
 22 65  1  0
 23 66  1  0
 23 67  1  0
 24 68  1  0
 24 69  1  0
 25 70  1  0
 28 71  1  0
 28 72  1  0
 29 73  1  0
 29 74  1  0
 30 75  1  0
 30 76  1  0
 31 77  1  0
 31 78  1  0
 36 79  1  0
 37 80  1  0
 38 81  1  0
 39 82  1  0
M  END
>  <score>  (2) 
-12.537

$$$$
=
     RDKit          3D

 82 87  0  0  0  0  0  0  0  0999 V2000
    0.1230   65.6340   70.4870 C   0  0  0  0  0  0  0  0  0  0  0  0
   -0.1380   65.5990   71.9970 C   0  0  0  0  0  0  0  0  0  0  0  0
    0.0390   64.2290   72.6560 C   0  0  0  0  0  0  0  0  0  0  0  0
    0.1060   63.1770   71.6300 N   0  0  0  0  0  0  0  0  0  0  0  0
    4.6950   61.5560   71.2110 C   0  0  0  0  0  0  0  0  0  0  0  0
    5.1010   62.7600   70.6230 C   0  0  0  0  0  0  0  0  0  0  0  0
    4.1870   63.7880   70.4430 C   0  0  0  0  0  0  0  0  0  0  0  0
    2.8720   63.6160   70.8690 C   0  0  0  0  0  0  0  0  0  0  0  0
    2.4440   62.4160   71.4850 C   0  0  0  0  0  0  0  0  0  0  0  0
    3.3780   61.3830   71.6800 C   0  0  0  0  0  0  0  0  0  0  0  0
    3.0450   60.2200   72.2760 N   0  0  0  0  0  0  0  0  0  0  0  0
    1.7820   60.0430   72.7280 C   0  0  0  0  0  0  0  0  0  0  0  0
    1.5400   58.7270   73.4240 C   0  0  0  0  0  0  0  0  0  0  0  0
    0.0660   58.3540   73.5120 C   0  0  0  0  0  0  0  0  0  0  0  0
   -0.7280   59.5350   74.0480 C   0  0  0  0  0  0  0  0  0  0  0  0
   -0.6200   60.7270   73.0970 C   0  0  0  0  0  0  0  0  0  0  0  0
    0.7790   61.0070   72.6020 C   0  0  0  0  0  0  0  0  0  0  0  0
    1.1140   62.2100   71.9440 C   0  0  0  0  0  0  0  0  0  0  0  0
    5.6810   60.5710   71.4910 N   0  0  0  0  0  0  0  0  0  0  0  0
    1.3130   66.4890   70.0360 C   0  0  0  0  0  0  0  0  0  0  0  0
    1.0170   67.3570   68.8120 C   0  0  0  0  0  0  0  0  0  0  0  0
   -0.3240   67.0290   68.1480 C   0  0  0  0  0  0  0  0  0  0  0  0
   -0.3750   67.4130   66.6650 C   0  0  0  0  0  0  0  0  0  0  0  0
    1.0180   67.5210   66.0400 C   0  0  0  0  0  0  0  0  0  0  0  0
    1.3370   68.9300   65.7770 N   0  0  0  0  0  0  0  0  0  0  0  0
    2.7470   69.1450   65.7060 C   0  0  0  0  0  0  0  0  0  0  0  0
    3.3920   68.9550   64.4680 C   0  0  0  0  0  0  0  0  0  0  0  0
    2.6290   68.4720   63.2570 C   0  0  0  0  0  0  0  0  0  0  0  0
    3.5240   67.9720   62.1230 C   0  0  0  0  0  0  0  0  0  0  0  0
    4.6630   68.9510   61.8760 C   0  0  0  0  0  0  0  0  0  0  0  0
    5.5370   69.0530   63.1200 C   0  0  0  0  0  0  0  0  0  0  0  0
    4.7510   69.2590   64.3900 C   0  0  0  0  0  0  0  0  0  0  0  0
    5.4710   69.7020   65.4460 N   0  0  0  0  0  0  0  0  0  0  0  0
    4.8580   69.8800   66.6250 C   0  0  0  0  0  0  0  0  0  0  0  0
    3.4860   69.6250   66.8250 C   0  0  0  0  0  0  0  0  0  0  0  0
    2.9380   69.8620   68.1130 C   0  0  0  0  0  0  0  0  0  0  0  0
    3.7260   70.3300   69.1640 C   0  0  0  0  0  0  0  0  0  0  0  0
    5.0740   70.5700   68.9510 C   0  0  0  0  0  0  0  0  0  0  0  0
    5.6220   70.3440   67.6880 C   0  0  0  0  0  0  0  0  0  0  0  0
    0.3023   64.6019   70.1513 H   0  0  0  0  0  0  0  0  0  0  0  0
   -0.7672   66.1010   70.0403 H   0  0  0  0  0  0  0  0  0  0  0  0
    0.5578   66.3013   72.4792 H   0  0  0  0  0  0  0  0  0  0  0  0
   -1.1961   65.8683   72.1308 H   0  0  0  0  0  0  0  0  0  0  0  0
    0.9700   64.2251   73.2418 H   0  0  0  0  0  0  0  0  0  0  0  0
   -0.8199   64.0338   73.3149 H   0  0  0  0  0  0  0  0  0  0  0  0
   -0.4945   63.1408   70.7940 H   0  0  0  0  0  0  0  0  0  0  0  0
    6.1454   62.8909   70.3035 H   0  0  0  0  0  0  0  0  0  0  0  0
    4.4979   64.7303   69.9682 H   0  0  0  0  0  0  0  0  0  0  0  0
    2.1492   64.4322   70.7231 H   0  0  0  0  0  0  0  0  0  0  0  0
    2.0676   57.9368   72.8698 H   0  0  0  0  0  0  0  0  0  0  0  0
    1.9120   58.8300   74.4541 H   0  0  0  0  0  0  0  0  0  0  0  0
   -0.3046   58.0877   72.5111 H   0  0  0  0  0  0  0  0  0  0  0  0
   -0.0538   57.4957   74.1894 H   0  0  0  0  0  0  0  0  0  0  0  0
   -1.7846   59.2458   74.1477 H   0  0  0  0  0  0  0  0  0  0  0  0
   -0.3202   59.8231   75.0281 H   0  0  0  0  0  0  0  0  0  0  0  0
   -1.2603   60.5299   72.2246 H   0  0  0  0  0  0  0  0  0  0  0  0
   -0.9334   61.6131   73.6684 H   0  0  0  0  0  0  0  0  0  0  0  0
    5.4076   59.6770   71.9233 H   0  0  0  0  0  0  0  0  0  0  0  0
    6.6688   60.7513   71.2616 H   0  0  0  0  0  0  0  0  0  0  0  0
    1.6020   67.1483   70.8677 H   0  0  0  0  0  0  0  0  0  0  0  0
    2.1179   65.7954   69.7514 H   0  0  0  0  0  0  0  0  0  0  0  0
    1.0026   68.4110   69.1264 H   0  0  0  0  0  0  0  0  0  0  0  0
    1.8054   67.1567   68.0715 H   0  0  0  0  0  0  0  0  0  0  0  0
   -0.5015   65.9469   68.2350 H   0  0  0  0  0  0  0  0  0  0  0  0
   -1.0964   67.6180   68.6643 H   0  0  0  0  0  0  0  0  0  0  0  0
   -0.9472   66.6467   66.1215 H   0  0  0  0  0  0  0  0  0  0  0  0
   -0.8522   68.4014   66.5916 H   0  0  0  0  0  0  0  0  0  0  0  0
    1.7625   67.1010   66.7324 H   0  0  0  0  0  0  0  0  0  0  0  0
    1.0357   66.9616   65.0930 H   0  0  0  0  0  0  0  0  0  0  0  0
    0.6315   69.6711   65.6585 H   0  0  0  0  0  0  0  0  0  0  0  0
    1.9703   67.6478   63.5681 H   0  0  0  0  0  0  0  0  0  0  0  0
    2.0686   69.3342   62.8665 H   0  0  0  0  0  0  0  0  0  0  0  0
    3.9414   66.9915   62.3959 H   0  0  0  0  0  0  0  0  0  0  0  0
    2.9230   67.8845   61.2058 H   0  0  0  0  0  0  0  0  0  0  0  0
    5.2714   68.5972   61.0306 H   0  0  0  0  0  0  0  0  0  0  0  0
    4.2455   69.9419   61.6441 H   0  0  0  0  0  0  0  0  0  0  0  0
    6.1166   68.1230   63.2159 H   0  0  0  0  0  0  0  0  0  0  0  0
    6.1824   69.9345   62.9915 H   0  0  0  0  0  0  0  0  0  0  0  0
    1.8683   69.6723   68.2857 H   0  0  0  0  0  0  0  0  0  0  0  0
    3.2810   70.5072   70.1543 H   0  0  0  0  0  0  0  0  0  0  0  0
    5.7077   70.9362   69.7721 H   0  0  0  0  0  0  0  0  0  0  0  0
    6.6928   70.5394   67.5291 H   0  0  0  0  0  0  0  0  0  0  0  0
  2  1  1  0
  3  2  1  0
  4  3  1  0
  6  5  2  0
  7  6  1  0
  8  7  2  0
  9  8  1  0
 10  5  1  0
 10  9  2  0
 11 10  1  0
 12 11  2  0
 13 12  1  0
 14 13  1  0
 15 14  1  0
 16 15  1  0
 17 16  1  0
 17 12  1  0
 18 17  2  0
 18  9  1  0
 18  4  1  0
 19  5  1  0
 20  1  1  0
 21 20  1  0
 22 21  1  0
 23 22  1  0
 24 23  1  0
 25 24  1  0
 26 25  1  0
 27 26  1  0
 28 27  1  0
 29 28  1  0
 30 29  1  0
 31 30  1  0
 32 31  1  0
 32 27  2  0
 33 32  1  0
 34 33  2  0
 35 34  1  0
 35 26  2  0
 36 35  1  0
 37 36  2  0
 38 37  1  0
 39 34  1  0
 39 38  2  0
  1 40  1  0
  1 41  1  0
  2 42  1  0
  2 43  1  0
  3 44  1  0
  3 45  1  0
  4 46  1  0
  6 47  1  0
  7 48  1  0
  8 49  1  0
 13 50  1  0
 13 51  1  0
 14 52  1  0
 14 53  1  0
 15 54  1  0
 15 55  1  0
 16 56  1  0
 16 57  1  0
 19 58  1  0
 19 59  1  0
 20 60  1  0
 20 61  1  0
 21 62  1  0
 21 63  1  0
 22 64  1  0
 22 65  1  0
 23 66  1  0
 23 67  1  0
 24 68  1  0
 24 69  1  0
 25 70  1  0
 28 71  1  0
 28 72  1  0
 29 73  1  0
 29 74  1  0
 30 75  1  0
 30 76  1  0
 31 77  1  0
 31 78  1  0
 36 79  1  0
 37 80  1  0
 38 81  1  0
 39 82  1  0
M  END
>  <score>  (3) 
-12.465

$$$$
=
     RDKit          3D

 82 87  0  0  0  0  0  0  0  0999 V2000
    1.1680   66.6980   69.6060 C   0  0  0  0  0  0  0  0  0  0  0  0
    0.5830   67.4320   68.3940 C   0  0  0  0  0  0  0  0  0  0  0  0
    1.5530   67.6390   67.2280 C   0  0  0  0  0  0  0  0  0  0  0  0
    1.6610   69.0700   66.9060 N   0  0  0  0  0  0  0  0  0  0  0  0
    4.3690   68.8630   62.8460 C   0  0  0  0  0  0  0  0  0  0  0  0
    3.2630   68.4590   62.0890 C   0  0  0  0  0  0  0  0  0  0  0  0
    2.0210   68.3210   62.6930 C   0  0  0  0  0  0  0  0  0  0  0  0
    1.8850   68.6090   64.0490 C   0  0  0  0  0  0  0  0  0  0  0  0
    2.9840   69.0400   64.8290 C   0  0  0  0  0  0  0  0  0  0  0  0
    4.2380   69.1930   64.2090 C   0  0  0  0  0  0  0  0  0  0  0  0
    5.3240   69.6180   64.8860 N   0  0  0  0  0  0  0  0  0  0  0  0
    5.2090   69.9340   66.1960 C   0  0  0  0  0  0  0  0  0  0  0  0
    6.4750   70.4470   66.8350 C   0  0  0  0  0  0  0  0  0  0  0  0
    6.4600   70.3630   68.3550 C   0  0  0  0  0  0  0  0  0  0  0  0
    5.1670   70.9620   68.8870 C   0  0  0  0  0  0  0  0  0  0  0  0
    3.9620   70.1710   68.3790 C   0  0  0  0  0  0  0  0  0  0  0  0
    4.0100   69.8360   66.9070 C   0  0  0  0  0  0  0  0  0  0  0  0
    2.8800   69.3550   66.2120 C   0  0  0  0  0  0  0  0  0  0  0  0
    5.5970   69.1100   62.1730 N   0  0  0  0  0  0  0  0  0  0  0  0
    0.3610   65.4980   70.1130 C   0  0  0  0  0  0  0  0  0  0  0  0
    0.2350   65.4400   71.6360 C   0  0  0  0  0  0  0  0  0  0  0  0
    0.1230   64.0130   72.1800 C   0  0  0  0  0  0  0  0  0  0  0  0
    0.7330   63.8470   73.5770 C   0  0  0  0  0  0  0  0  0  0  0  0
    1.0300   62.3850   73.9160 C   0  0  0  0  0  0  0  0  0  0  0  0
    2.4690   62.1250   73.7800 N   0  0  0  0  0  0  0  0  0  0  0  0
    2.7480   61.2910   72.6550 C   0  0  0  0  0  0  0  0  0  0  0  0
    2.5680   59.8990   72.7920 C   0  0  0  0  0  0  0  0  0  0  0  0
    2.1550   59.2930   74.1120 C   0  0  0  0  0  0  0  0  0  0  0  0
    2.3640   57.7800   74.1880 C   0  0  0  0  0  0  0  0  0  0  0  0
    1.8420   57.1090   72.9260 C   0  0  0  0  0  0  0  0  0  0  0  0
    2.6220   57.6060   71.7150 C   0  0  0  0  0  0  0  0  0  0  0  0
    2.7530   59.1060   71.6600 C   0  0  0  0  0  0  0  0  0  0  0  0
    3.1150   59.6080   70.4560 N   0  0  0  0  0  0  0  0  0  0  0  0
    3.2890   60.9310   70.3270 C   0  0  0  0  0  0  0  0  0  0  0  0
    3.1150   61.8380   71.3930 C   0  0  0  0  0  0  0  0  0  0  0  0
    3.3120   63.2200   71.1380 C   0  0  0  0  0  0  0  0  0  0  0  0
    3.6740   63.6830   69.8730 C   0  0  0  0  0  0  0  0  0  0  0  0
    3.8470   62.7770   68.8400 C   0  0  0  0  0  0  0  0  0  0  0  0
    3.6520   61.4160   69.0770 C   0  0  0  0  0  0  0  0  0  0  0  0
    2.1706   66.3385   69.3311 H   0  0  0  0  0  0  0  0  0  0  0  0
    1.1643   67.4290   70.4280 H   0  0  0  0  0  0  0  0  0  0  0  0
   -0.2742   66.8499   68.0246 H   0  0  0  0  0  0  0  0  0  0  0  0
    0.3111   68.4375   68.7476 H   0  0  0  0  0  0  0  0  0  0  0  0
    2.5446   67.2534   67.5073 H   0  0  0  0  0  0  0  0  0  0  0  0
    1.1754   67.0999   66.3466 H   0  0  0  0  0  0  0  0  0  0  0  0
    0.9512   69.7759   67.1485 H   0  0  0  0  0  0  0  0  0  0  0  0
    3.3783   68.2508   61.0150 H   0  0  0  0  0  0  0  0  0  0  0  0
    1.1523   67.9874   62.1064 H   0  0  0  0  0  0  0  0  0  0  0  0
    0.8994   68.4987   64.5249 H   0  0  0  0  0  0  0  0  0  0  0  0
    7.3209   69.8515   66.4609 H   0  0  0  0  0  0  0  0  0  0  0  0
    6.5663   71.5104   66.5687 H   0  0  0  0  0  0  0  0  0  0  0  0
    6.5297   69.3096   68.6640 H   0  0  0  0  0  0  0  0  0  0  0  0
    7.3156   70.9232   68.7600 H   0  0  0  0  0  0  0  0  0  0  0  0
    5.1807   70.9344   69.9866 H   0  0  0  0  0  0  0  0  0  0  0  0
    5.0848   72.0009   68.5348 H   0  0  0  0  0  0  0  0  0  0  0  0
    3.9058   69.2291   68.9444 H   0  0  0  0  0  0  0  0  0  0  0  0
    3.0810   70.8130   68.5259 H   0  0  0  0  0  0  0  0  0  0  0  0
    6.4259   69.4083   62.7068 H   0  0  0  0  0  0  0  0  0  0  0  0
    5.6577   68.9906   61.1517 H   0  0  0  0  0  0  0  0  0  0  0  0
   -0.6499   65.5529   69.6829 H   0  0  0  0  0  0  0  0  0  0  0  0
    0.9018   64.5924   69.8009 H   0  0  0  0  0  0  0  0  0  0  0  0
    1.1239   65.9136   72.0783 H   0  0  0  0  0  0  0  0  0  0  0  0
   -0.6925   65.9659   71.9067 H   0  0  0  0  0  0  0  0  0  0  0  0
   -0.9416   63.7406   72.2292 H   0  0  0  0  0  0  0  0  0  0  0  0
    0.6869   63.3592   71.4984 H   0  0  0  0  0  0  0  0  0  0  0  0
    1.6724   64.4175   73.6219 H   0  0  0  0  0  0  0  0  0  0  0  0
   -0.0003   64.2176   74.3084 H   0  0  0  0  0  0  0  0  0  0  0  0
    0.7180   62.1794   74.9506 H   0  0  0  0  0  0  0  0  0  0  0  0
    0.4762   61.7323   73.2251 H   0  0  0  0  0  0  0  0  0  0  0  0
    3.1876   62.4978   74.4168 H   0  0  0  0  0  0  0  0  0  0  0  0
    2.7458   59.7654   74.9106 H   0  0  0  0  0  0  0  0  0  0  0  0
    1.0758   59.4737   74.2242 H   0  0  0  0  0  0  0  0  0  0  0  0
    3.4380   57.5672   74.2940 H   0  0  0  0  0  0  0  0  0  0  0  0
    1.8136   57.3866   75.0554 H   0  0  0  0  0  0  0  0  0  0  0  0
    1.9625   56.0193   73.0156 H   0  0  0  0  0  0  0  0  0  0  0  0
    0.7777   57.3556   72.7979 H   0  0  0  0  0  0  0  0  0  0  0  0
    3.6310   57.1691   71.7473 H   0  0  0  0  0  0  0  0  0  0  0  0
    2.0624   57.2966   70.8199 H   0  0  0  0  0  0  0  0  0  0  0  0
    3.1762   63.9424   71.9563 H   0  0  0  0  0  0  0  0  0  0  0  0
    3.8209   64.7589   69.6974 H   0  0  0  0  0  0  0  0  0  0  0  0
    4.1364   63.1283   67.8386 H   0  0  0  0  0  0  0  0  0  0  0  0
    3.7899   60.7054   68.2488 H   0  0  0  0  0  0  0  0  0  0  0  0
  2  1  1  0
  3  2  1  0
  4  3  1  0
  6  5  2  0
  7  6  1  0
  8  7  2  0
  9  8  1  0
 10  5  1  0
 10  9  2  0
 11 10  1  0
 12 11  2  0
 13 12  1  0
 14 13  1  0
 15 14  1  0
 16 15  1  0
 17 16  1  0
 17 12  1  0
 18 17  2  0
 18  9  1  0
 18  4  1  0
 19  5  1  0
 20  1  1  0
 21 20  1  0
 22 21  1  0
 23 22  1  0
 24 23  1  0
 25 24  1  0
 26 25  1  0
 27 26  1  0
 28 27  1  0
 29 28  1  0
 30 29  1  0
 31 30  1  0
 32 31  1  0
 32 27  2  0
 33 32  1  0
 34 33  2  0
 35 34  1  0
 35 26  2  0
 36 35  1  0
 37 36  2  0
 38 37  1  0
 39 34  1  0
 39 38  2  0
  1 40  1  0
  1 41  1  0
  2 42  1  0
  2 43  1  0
  3 44  1  0
  3 45  1  0
  4 46  1  0
  6 47  1  0
  7 48  1  0
  8 49  1  0
 13 50  1  0
 13 51  1  0
 14 52  1  0
 14 53  1  0
 15 54  1  0
 15 55  1  0
 16 56  1  0
 16 57  1  0
 19 58  1  0
 19 59  1  0
 20 60  1  0
 20 61  1  0
 21 62  1  0
 21 63  1  0
 22 64  1  0
 22 65  1  0
 23 66  1  0
 23 67  1  0
 24 68  1  0
 24 69  1  0
 25 70  1  0
 28 71  1  0
 28 72  1  0
 29 73  1  0
 29 74  1  0
 30 75  1  0
 30 76  1  0
 31 77  1  0
 31 78  1  0
 36 79  1  0
 37 80  1  0
 38 81  1  0
 39 82  1  0
M  END
>  <score>  (4) 
-12.462

$$$$
=
     RDKit          3D

 82 87  0  0  0  0  0  0  0  0999 V2000
   -0.2610   67.1250   68.3440 C   0  0  0  0  0  0  0  0  0  0  0  0
   -0.4310   67.5840   66.8910 C   0  0  0  0  0  0  0  0  0  0  0  0
    0.8450   67.5600   66.0470 C   0  0  0  0  0  0  0  0  0  0  0  0
    1.2270   68.9290   65.6650 N   0  0  0  0  0  0  0  0  0  0  0  0
    5.3850   70.3570   67.7940 C   0  0  0  0  0  0  0  0  0  0  0  0
    4.7370   70.5210   69.0240 C   0  0  0  0  0  0  0  0  0  0  0  0
    3.3840   70.2340   69.1400 C   0  0  0  0  0  0  0  0  0  0  0  0
    2.6880   69.7640   68.0300 C   0  0  0  0  0  0  0  0  0  0  0  0
    3.3260   69.5700   66.7820 C   0  0  0  0  0  0  0  0  0  0  0  0
    4.7010   69.8470   66.6730 C   0  0  0  0  0  0  0  0  0  0  0  0
    5.3780   69.6680   65.5200 N   0  0  0  0  0  0  0  0  0  0  0  0
    4.7290   69.1810   64.4370 C   0  0  0  0  0  0  0  0  0  0  0  0
    5.5980   68.9720   63.2230 C   0  0  0  0  0  0  0  0  0  0  0  0
    4.8070   68.8710   61.9260 C   0  0  0  0  0  0  0  0  0  0  0  0
    3.6700   67.8760   62.0980 C   0  0  0  0  0  0  0  0  0  0  0  0
    2.7020   68.3520   63.1810 C   0  0  0  0  0  0  0  0  0  0  0  0
    3.3700   68.8560   64.4380 C   0  0  0  0  0  0  0  0  0  0  0  0
    2.6500   69.0790   65.6310 C   0  0  0  0  0  0  0  0  0  0  0  0
    6.7940   70.5430   67.7380 N   0  0  0  0  0  0  0  0  0  0  0  0
    1.1840   66.9730   68.8300 C   0  0  0  0  0  0  0  0  0  0  0  0
    1.3000   66.4160   70.2500 C   0  0  0  0  0  0  0  0  0  0  0  0
    0.0310   65.6980   70.7230 C   0  0  0  0  0  0  0  0  0  0  0  0
   -0.0560   65.5630   72.2470 C   0  0  0  0  0  0  0  0  0  0  0  0
    0.2010   64.1310   72.7240 C   0  0  0  0  0  0  0  0  0  0  0  0
    0.2420   63.2230   71.5710 N   0  0  0  0  0  0  0  0  0  0  0  0
    1.0660   62.0860   71.8270 C   0  0  0  0  0  0  0  0  0  0  0  0
    2.4130   62.1290   71.4140 C   0  0  0  0  0  0  0  0  0  0  0  0
    2.9600   63.3170   70.6590 C   0  0  0  0  0  0  0  0  0  0  0  0
    4.3010   63.0500   69.9750 C   0  0  0  0  0  0  0  0  0  0  0  0
    5.2510   62.3420   70.9300 C   0  0  0  0  0  0  0  0  0  0  0  0
    4.6750   60.9870   71.3230 C   0  0  0  0  0  0  0  0  0  0  0  0
    3.2310   61.0510   71.7530 C   0  0  0  0  0  0  0  0  0  0  0  0
    2.7860   59.9710   72.4350 N   0  0  0  0  0  0  0  0  0  0  0  0
    1.5040   59.9290   72.8250 C   0  0  0  0  0  0  0  0  0  0  0  0
    0.5840   60.9630   72.5580 C   0  0  0  0  0  0  0  0  0  0  0  0
   -0.7460   60.8190   73.0320 C   0  0  0  0  0  0  0  0  0  0  0  0
   -1.1480   59.6870   73.7400 C   0  0  0  0  0  0  0  0  0  0  0  0
   -0.2320   58.6770   73.9880 C   0  0  0  0  0  0  0  0  0  0  0  0
    1.0790   58.8100   73.5310 C   0  0  0  0  0  0  0  0  0  0  0  0
   -0.7591   67.8618   68.9913 H   0  0  0  0  0  0  0  0  0  0  0  0
   -0.7003   66.1177   68.3927 H   0  0  0  0  0  0  0  0  0  0  0  0
   -1.1695   66.9256   66.4103 H   0  0  0  0  0  0  0  0  0  0  0  0
   -0.7461   68.6368   66.9382 H   0  0  0  0  0  0  0  0  0  0  0  0
    1.6586   67.1053   66.6311 H   0  0  0  0  0  0  0  0  0  0  0  0
    0.6621   66.9708   65.1363 H   0  0  0  0  0  0  0  0  0  0  0  0
    0.5573   69.6814   65.4500 H   0  0  0  0  0  0  0  0  0  0  0  0
    5.3004   70.8775   69.8990 H   0  0  0  0  0  0  0  0  0  0  0  0
    2.8666   70.3766   70.1002 H   0  0  0  0  0  0  0  0  0  0  0  0
    1.6157   69.5378   68.1253 H   0  0  0  0  0  0  0  0  0  0  0  0
    6.2944   69.8196   63.1421 H   0  0  0  0  0  0  0  0  0  0  0  0
    6.1234   68.0153   63.3594 H   0  0  0  0  0  0  0  0  0  0  0  0
    4.3941   69.8582   61.6712 H   0  0  0  0  0  0  0  0  0  0  0  0
    5.4716   68.5302   61.1184 H   0  0  0  0  0  0  0  0  0  0  0  0
    3.1280   67.7774   61.1459 H   0  0  0  0  0  0  0  0  0  0  0  0
    4.0896   66.9043   62.3977 H   0  0  0  0  0  0  0  0  0  0  0  0
    2.0937   69.1681   62.7639 H   0  0  0  0  0  0  0  0  0  0  0  0
    2.1034   67.4766   63.4733 H   0  0  0  0  0  0  0  0  0  0  0  0
    7.2936   70.4279   66.8446 H   0  0  0  0  0  0  0  0  0  0  0  0
    7.3148   70.7928   68.5908 H   0  0  0  0  0  0  0  0  0  0  0  0
    1.7107   66.2916   68.1456 H   0  0  0  0  0  0  0  0  0  0  0  0
    1.6264   67.9800   68.8426 H   0  0  0  0  0  0  0  0  0  0  0  0
    2.1365   65.7023   70.2782 H   0  0  0  0  0  0  0  0  0  0  0  0
    1.4624   67.2702   70.9237 H   0  0  0  0  0  0  0  0  0  0  0  0
   -0.8431   66.2662   70.3722 H   0  0  0  0  0  0  0  0  0  0  0  0
    0.0577   64.6803   70.3065 H   0  0  0  0  0  0  0  0  0  0  0  0
    0.6932   66.2267   72.7033 H   0  0  0  0  0  0  0  0  0  0  0  0
   -1.0773   65.8379   72.5493 H   0  0  0  0  0  0  0  0  0  0  0  0
    1.1632   64.0902   73.2555 H   0  0  0  0  0  0  0  0  0  0  0  0
   -0.6094   63.8225   73.4008 H   0  0  0  0  0  0  0  0  0  0  0  0
   -0.2613   63.3862   70.6873 H   0  0  0  0  0  0  0  0  0  0  0  0
    2.2292   63.6047   69.8888 H   0  0  0  0  0  0  0  0  0  0  0  0
    3.1304   64.1146   71.3971 H   0  0  0  0  0  0  0  0  0  0  0  0
    4.1372   62.4167   69.0906 H   0  0  0  0  0  0  0  0  0  0  0  0
    4.7462   64.0100   69.6747 H   0  0  0  0  0  0  0  0  0  0  0  0
    6.2231   62.1960   70.4363 H   0  0  0  0  0  0  0  0  0  0  0  0
    5.3818   62.9562   71.8331 H   0  0  0  0  0  0  0  0  0  0  0  0
    4.7515   60.3117   70.4581 H   0  0  0  0  0  0  0  0  0  0  0  0
    5.2545   60.6260   72.1855 H   0  0  0  0  0  0  0  0  0  0  0  0
   -1.4760   61.6183   72.8365 H   0  0  0  0  0  0  0  0  0  0  0  0
   -2.1839   59.5964   74.0988 H   0  0  0  0  0  0  0  0  0  0  0  0
   -0.5368   57.7766   74.5415 H   0  0  0  0  0  0  0  0  0  0  0  0
    1.7990   58.0040   73.7358 H   0  0  0  0  0  0  0  0  0  0  0  0
  2  1  1  0
  3  2  1  0
  4  3  1  0
  6  5  2  0
  7  6  1  0
  8  7  2  0
  9  8  1  0
 10  5  1  0
 10  9  2  0
 11 10  1  0
 12 11  2  0
 13 12  1  0
 14 13  1  0
 15 14  1  0
 16 15  1  0
 17 16  1  0
 17 12  1  0
 18 17  2  0
 18  9  1  0
 18  4  1  0
 19  5  1  0
 20  1  1  0
 21 20  1  0
 22 21  1  0
 23 22  1  0
 24 23  1  0
 25 24  1  0
 26 25  1  0
 27 26  1  0
 28 27  1  0
 29 28  1  0
 30 29  1  0
 31 30  1  0
 32 31  1  0
 32 27  2  0
 33 32  1  0
 34 33  2  0
 35 34  1  0
 35 26  2  0
 36 35  1  0
 37 36  2  0
 38 37  1  0
 39 34  1  0
 39 38  2  0
  1 40  1  0
  1 41  1  0
  2 42  1  0
  2 43  1  0
  3 44  1  0
  3 45  1  0
  4 46  1  0
  6 47  1  0
  7 48  1  0
  8 49  1  0
 13 50  1  0
 13 51  1  0
 14 52  1  0
 14 53  1  0
 15 54  1  0
 15 55  1  0
 16 56  1  0
 16 57  1  0
 19 58  1  0
 19 59  1  0
 20 60  1  0
 20 61  1  0
 21 62  1  0
 21 63  1  0
 22 64  1  0
 22 65  1  0
 23 66  1  0
 23 67  1  0
 24 68  1  0
 24 69  1  0
 25 70  1  0
 28 71  1  0
 28 72  1  0
 29 73  1  0
 29 74  1  0
 30 75  1  0
 30 76  1  0
 31 77  1  0
 31 78  1  0
 36 79  1  0
 37 80  1  0
 38 81  1  0
 39 82  1  0
M  END
>  <score>  (5) 
-12.446

$$$$
=
     RDKit          3D

 82 87  0  0  0  0  0  0  0  0999 V2000
    0.0410   66.6840   69.2580 C   0  0  0  0  0  0  0  0  0  0  0  0
    0.1210   67.3370   67.8740 C   0  0  0  0  0  0  0  0  0  0  0  0
    1.5340   67.6820   67.3970 C   0  0  0  0  0  0  0  0  0  0  0  0
    1.5940   69.0870   66.9640 N   0  0  0  0  0  0  0  0  0  0  0  0
    4.2320   68.8220   62.8620 C   0  0  0  0  0  0  0  0  0  0  0  0
    3.1120   68.4150   62.1280 C   0  0  0  0  0  0  0  0  0  0  0  0
    1.8790   68.2910   62.7540 C   0  0  0  0  0  0  0  0  0  0  0  0
    1.7680   68.5940   64.1090 C   0  0  0  0  0  0  0  0  0  0  0  0
    2.8820   69.0270   64.8660 C   0  0  0  0  0  0  0  0  0  0  0  0
    4.1260   69.1670   64.2240 C   0  0  0  0  0  0  0  0  0  0  0  0
    5.2260   69.5930   64.8780 N   0  0  0  0  0  0  0  0  0  0  0  0
    5.1340   69.9240   66.1860 C   0  0  0  0  0  0  0  0  0  0  0  0
    6.4130   70.4370   66.7980 C   0  0  0  0  0  0  0  0  0  0  0  0
    6.4230   70.3680   68.3200 C   0  0  0  0  0  0  0  0  0  0  0  0
    5.1430   70.9810   68.8670 C   0  0  0  0  0  0  0  0  0  0  0  0
    3.9250   70.1910   68.3880 C   0  0  0  0  0  0  0  0  0  0  0  0
    3.9470   69.8390   66.9180 C   0  0  0  0  0  0  0  0  0  0  0  0
    2.8020   69.3570   66.2470 C   0  0  0  0  0  0  0  0  0  0  0  0
    5.4510   69.0550   62.1670 N   0  0  0  0  0  0  0  0  0  0  0  0
    1.3790   66.4830   69.9790 C   0  0  0  0  0  0  0  0  0  0  0  0
    1.6930   65.0200   70.2960 C   0  0  0  0  0  0  0  0  0  0  0  0
    0.4410   64.1740   70.5500 C   0  0  0  0  0  0  0  0  0  0  0  0
    0.1360   63.9770   72.0390 C   0  0  0  0  0  0  0  0  0  0  0  0
   -0.1470   62.5140   72.3900 C   0  0  0  0  0  0  0  0  0  0  0  0
    0.8380   62.0380   73.3710 N   0  0  0  0  0  0  0  0  0  0  0  0
    1.5260   60.8780   72.9030 C   0  0  0  0  0  0  0  0  0  0  0  0
    2.7680   61.0510   72.2600 C   0  0  0  0  0  0  0  0  0  0  0  0
    3.3310   62.4300   72.0080 C   0  0  0  0  0  0  0  0  0  0  0  0
    4.4750   62.4540   70.9940 C   0  0  0  0  0  0  0  0  0  0  0  0
    5.4730   61.3450   71.2930 C   0  0  0  0  0  0  0  0  0  0  0  0
    4.7920   59.9870   71.1650 C   0  0  0  0  0  0  0  0  0  0  0  0
    3.4740   59.9060   71.8920 C   0  0  0  0  0  0  0  0  0  0  0  0
    3.0120   58.6520   72.1050 N   0  0  0  0  0  0  0  0  0  0  0  0
    1.8290   58.4880   72.7140 C   0  0  0  0  0  0  0  0  0  0  0  0
    1.0310   59.5660   73.1490 C   0  0  0  0  0  0  0  0  0  0  0  0
   -0.1970   59.2750   73.7960 C   0  0  0  0  0  0  0  0  0  0  0  0
   -0.6200   57.9620   74.0000 C   0  0  0  0  0  0  0  0  0  0  0  0
    0.1740   56.9150   73.5610 C   0  0  0  0  0  0  0  0  0  0  0  0
    1.3860   57.1890   72.9270 C   0  0  0  0  0  0  0  0  0  0  0  0
   -0.5934   67.3184   69.8944 H   0  0  0  0  0  0  0  0  0  0  0  0
   -0.3622   65.6746   69.0893 H   0  0  0  0  0  0  0  0  0  0  0  0
   -0.3248   66.6446   67.1447 H   0  0  0  0  0  0  0  0  0  0  0  0
   -0.4156   68.2937   67.9563 H   0  0  0  0  0  0  0  0  0  0  0  0
    2.2446   67.5251   68.2219 H   0  0  0  0  0  0  0  0  0  0  0  0
    1.7954   67.0328   66.5483 H   0  0  0  0  0  0  0  0  0  0  0  0
    0.8611   69.7856   67.1527 H   0  0  0  0  0  0  0  0  0  0  0  0
    3.2087   68.1933   61.0549 H   0  0  0  0  0  0  0  0  0  0  0  0
    0.9985   67.9568   62.1856 H   0  0  0  0  0  0  0  0  0  0  0  0
    0.7901   68.4942   64.6027 H   0  0  0  0  0  0  0  0  0  0  0  0
    7.2495   69.8336   66.4157 H   0  0  0  0  0  0  0  0  0  0  0  0
    6.5052   71.4971   66.5194 H   0  0  0  0  0  0  0  0  0  0  0  0
    6.4909   69.3173   68.6384 H   0  0  0  0  0  0  0  0  0  0  0  0
    7.2890   70.9262   68.7053 H   0  0  0  0  0  0  0  0  0  0  0  0
    5.1751   70.9657   69.9664 H   0  0  0  0  0  0  0  0  0  0  0  0
    5.0609   72.0164   68.5049 H   0  0  0  0  0  0  0  0  0  0  0  0
    3.8730   69.2558   68.9649 H   0  0  0  0  0  0  0  0  0  0  0  0
    3.0500   70.8395   68.5422 H   0  0  0  0  0  0  0  0  0  0  0  0
    6.2895   69.3552   62.6844 H   0  0  0  0  0  0  0  0  0  0  0  0
    5.4952   68.9235   61.1464 H   0  0  0  0  0  0  0  0  0  0  0  0
    2.1812   66.8796   69.3393 H   0  0  0  0  0  0  0  0  0  0  0  0
    1.3086   67.0123   70.9407 H   0  0  0  0  0  0  0  0  0  0  0  0
    2.2400   64.5878   69.4451 H   0  0  0  0  0  0  0  0  0  0  0  0
    2.2887   65.0070   71.2206 H   0  0  0  0  0  0  0  0  0  0  0  0
   -0.4193   64.6732   70.0802 H   0  0  0  0  0  0  0  0  0  0  0  0
    0.6270   63.1786   70.1204 H   0  0  0  0  0  0  0  0  0  0  0  0
    1.0017   64.3194   72.6249 H   0  0  0  0  0  0  0  0  0  0  0  0
   -0.7673   64.5586   72.2753 H   0  0  0  0  0  0  0  0  0  0  0  0
   -1.1574   62.4297   72.8166 H   0  0  0  0  0  0  0  0  0  0  0  0
   -0.0771   61.9018   71.4788 H   0  0  0  0  0  0  0  0  0  0  0  0
    1.0105   62.4854   74.2826 H   0  0  0  0  0  0  0  0  0  0  0  0
    2.5208   63.0719   71.6319 H   0  0  0  0  0  0  0  0  0  0  0  0
    3.7425   62.7874   72.9635 H   0  0  0  0  0  0  0  0  0  0  0  0
    4.0661   62.3106   69.9830 H   0  0  0  0  0  0  0  0  0  0  0  0
    4.9895   63.4240   71.0599 H   0  0  0  0  0  0  0  0  0  0  0  0
    6.3079   61.4032   70.5792 H   0  0  0  0  0  0  0  0  0  0  0  0
    5.8521   61.4652   72.3186 H   0  0  0  0  0  0  0  0  0  0  0  0
    4.6145   59.7854   70.0983 H   0  0  0  0  0  0  0  0  0  0  0  0
    5.4613   59.2442   71.6235 H   0  0  0  0  0  0  0  0  0  0  0  0
   -0.8303   60.1040   74.1449 H   0  0  0  0  0  0  0  0  0  0  0  0
   -1.5759   57.7593   74.5051 H   0  0  0  0  0  0  0  0  0  0  0  0
   -0.1492   55.8744   73.7114 H   0  0  0  0  0  0  0  0  0  0  0  0
    2.0102   56.3502   72.5852 H   0  0  0  0  0  0  0  0  0  0  0  0
  2  1  1  0
  3  2  1  0
  4  3  1  0
  6  5  2  0
  7  6  1  0
  8  7  2  0
  9  8  1  0
 10  5  1  0
 10  9  2  0
 11 10  1  0
 12 11  2  0
 13 12  1  0
 14 13  1  0
 15 14  1  0
 16 15  1  0
 17 16  1  0
 17 12  1  0
 18 17  2  0
 18  9  1  0
 18  4  1  0
 19  5  1  0
 20  1  1  0
 21 20  1  0
 22 21  1  0
 23 22  1  0
 24 23  1  0
 25 24  1  0
 26 25  1  0
 27 26  1  0
 28 27  1  0
 29 28  1  0
 30 29  1  0
 31 30  1  0
 32 31  1  0
 32 27  2  0
 33 32  1  0
 34 33  2  0
 35 34  1  0
 35 26  2  0
 36 35  1  0
 37 36  2  0
 38 37  1  0
 39 34  1  0
 39 38  2  0
  1 40  1  0
  1 41  1  0
  2 42  1  0
  2 43  1  0
  3 44  1  0
  3 45  1  0
  4 46  1  0
  6 47  1  0
  7 48  1  0
  8 49  1  0
 13 50  1  0
 13 51  1  0
 14 52  1  0
 14 53  1  0
 15 54  1  0
 15 55  1  0
 16 56  1  0
 16 57  1  0
 19 58  1  0
 19 59  1  0
 20 60  1  0
 20 61  1  0
 21 62  1  0
 21 63  1  0
 22 64  1  0
 22 65  1  0
 23 66  1  0
 23 67  1  0
 24 68  1  0
 24 69  1  0
 25 70  1  0
 28 71  1  0
 28 72  1  0
 29 73  1  0
 29 74  1  0
 30 75  1  0
 30 76  1  0
 31 77  1  0
 31 78  1  0
 36 79  1  0
 37 80  1  0
 38 81  1  0
 39 82  1  0
M  END
>  <score>  (6) 
-12.441

$$$$
=
     RDKit          3D

 82 87  0  0  0  0  0  0  0  0999 V2000
    0.3030   64.9990   70.6260 C   0  0  0  0  0  0  0  0  0  0  0  0
    0.1110   64.8070   72.1350 C   0  0  0  0  0  0  0  0  0  0  0  0
    0.7480   63.5430   72.7170 C   0  0  0  0  0  0  0  0  0  0  0  0
    0.3430   62.3650   71.9340 N   0  0  0  0  0  0  0  0  0  0  0  0
    1.5590   58.0310   73.8320 C   0  0  0  0  0  0  0  0  0  0  0  0
    0.2460   57.8140   74.2640 C   0  0  0  0  0  0  0  0  0  0  0  0
   -0.7360   58.7590   74.0010 C   0  0  0  0  0  0  0  0  0  0  0  0
   -0.4050   59.9090   73.2890 C   0  0  0  0  0  0  0  0  0  0  0  0
    0.9110   60.1400   72.8240 C   0  0  0  0  0  0  0  0  0  0  0  0
    1.9000   59.1720   73.0790 C   0  0  0  0  0  0  0  0  0  0  0  0
    3.1700   59.3160   72.6500 N   0  0  0  0  0  0  0  0  0  0  0  0
    3.5080   60.4100   71.9280 C   0  0  0  0  0  0  0  0  0  0  0  0
    4.9400   60.4370   71.4570 C   0  0  0  0  0  0  0  0  0  0  0  0
    5.4180   61.8280   71.0630 C   0  0  0  0  0  0  0  0  0  0  0  0
    4.4070   62.4680   70.1240 C   0  0  0  0  0  0  0  0  0  0  0  0
    3.0580   62.6360   70.8240 C   0  0  0  0  0  0  0  0  0  0  0  0
    2.6030   61.4240   71.6030 C   0  0  0  0  0  0  0  0  0  0  0  0
    1.2830   61.2950   72.0830 C   0  0  0  0  0  0  0  0  0  0  0  0
    2.5130   56.9910   74.0110 N   0  0  0  0  0  0  0  0  0  0  0  0
    1.5330   65.8120   70.2080 C   0  0  0  0  0  0  0  0  0  0  0  0
    1.1940   67.0680   69.4040 C   0  0  0  0  0  0  0  0  0  0  0  0
   -0.1310   66.9610   68.6430 C   0  0  0  0  0  0  0  0  0  0  0  0
    0.0070   67.2490   67.1440 C   0  0  0  0  0  0  0  0  0  0  0  0
    1.4460   67.5790   66.7400 C   0  0  0  0  0  0  0  0  0  0  0  0
    1.5950   69.0300   66.5680 N   0  0  0  0  0  0  0  0  0  0  0  0
    2.9280   69.3810   66.1960 C   0  0  0  0  0  0  0  0  0  0  0  0
    3.7960   69.8650   67.1950 C   0  0  0  0  0  0  0  0  0  0  0  0
    3.3170   70.0730   68.6120 C   0  0  0  0  0  0  0  0  0  0  0  0
    4.2520   70.9330   69.4610 C   0  0  0  0  0  0  0  0  0  0  0  0
    5.6950   70.4850   69.2790 C   0  0  0  0  0  0  0  0  0  0  0  0
    6.1160   70.6690   67.8260 C   0  0  0  0  0  0  0  0  0  0  0  0
    5.1210   70.1140   66.8390 C   0  0  0  0  0  0  0  0  0  0  0  0
    5.5960   69.9340   65.5840 N   0  0  0  0  0  0  0  0  0  0  0  0
    4.7690   69.4770   64.6340 C   0  0  0  0  0  0  0  0  0  0  0  0
    3.4140   69.1720   64.8740 C   0  0  0  0  0  0  0  0  0  0  0  0
    2.6340   68.6800   63.7960 C   0  0  0  0  0  0  0  0  0  0  0  0
    3.1780   68.5030   62.5240 C   0  0  0  0  0  0  0  0  0  0  0  0
    4.5100   68.8140   62.3040 C   0  0  0  0  0  0  0  0  0  0  0  0
    5.2880   69.2950   63.3580 C   0  0  0  0  0  0  0  0  0  0  0  0
    0.3850   64.0028   70.1668 H   0  0  0  0  0  0  0  0  0  0  0  0
   -0.5678   65.5785   70.2855 H   0  0  0  0  0  0  0  0  0  0  0  0
    0.5497   65.6760   72.6472 H   0  0  0  0  0  0  0  0  0  0  0  0
   -0.9725   64.7041   72.2943 H   0  0  0  0  0  0  0  0  0  0  0  0
    1.8432   63.6407   72.6868 H   0  0  0  0  0  0  0  0  0  0  0  0
    0.4116   63.4168   73.7566 H   0  0  0  0  0  0  0  0  0  0  0  0
   -0.5066   62.3163   71.3538 H   0  0  0  0  0  0  0  0  0  0  0  0
   -0.0080   56.8946   74.8120 H   0  0  0  0  0  0  0  0  0  0  0  0
   -1.7665   58.6009   74.3519 H   0  0  0  0  0  0  0  0  0  0  0  0
   -1.1858   60.6560   73.0831 H   0  0  0  0  0  0  0  0  0  0  0  0
    5.5817   60.0642   72.2689 H   0  0  0  0  0  0  0  0  0  0  0  0
    4.9995   59.8052   70.5585 H   0  0  0  0  0  0  0  0  0  0  0  0
    5.5232   62.4482   71.9654 H   0  0  0  0  0  0  0  0  0  0  0  0
    6.3903   61.7497   70.5545 H   0  0  0  0  0  0  0  0  0  0  0  0
    4.7779   63.4552   69.8110 H   0  0  0  0  0  0  0  0  0  0  0  0
    4.2743   61.8174   69.2470 H   0  0  0  0  0  0  0  0  0  0  0  0
    3.1354   63.4836   71.5209 H   0  0  0  0  0  0  0  0  0  0  0  0
    2.3119   62.7981   70.0322 H   0  0  0  0  0  0  0  0  0  0  0  0
    3.4861   57.1259   73.7015 H   0  0  0  0  0  0  0  0  0  0  0  0
    2.2306   56.1031   74.4501 H   0  0  0  0  0  0  0  0  0  0  0  0
    2.0736   66.1163   71.1164 H   0  0  0  0  0  0  0  0  0  0  0  0
    2.1395   65.1662   69.5560 H   0  0  0  0  0  0  0  0  0  0  0  0
    1.1307   67.9198   70.0972 H   0  0  0  0  0  0  0  0  0  0  0  0
    1.9895   67.2006   68.6560 H   0  0  0  0  0  0  0  0  0  0  0  0
   -0.5243   65.9414   68.7681 H   0  0  0  0  0  0  0  0  0  0  0  0
   -0.8090   67.7203   69.0600 H   0  0  0  0  0  0  0  0  0  0  0  0
   -0.3223   66.3621   66.5827 H   0  0  0  0  0  0  0  0  0  0  0  0
   -0.6142   68.1272   66.9141 H   0  0  0  0  0  0  0  0  0  0  0  0
    2.1342   67.2319   67.5248 H   0  0  0  0  0  0  0  0  0  0  0  0
    1.6810   67.0751   65.7909 H   0  0  0  0  0  0  0  0  0  0  0  0
    0.8325   69.7099   66.6994 H   0  0  0  0  0  0  0  0  0  0  0  0
    2.3326   70.5626   68.5766 H   0  0  0  0  0  0  0  0  0  0  0  0
    3.2780   69.0807   69.0850 H   0  0  0  0  0  0  0  0  0  0  0  0
    4.1572   71.9846   69.1527 H   0  0  0  0  0  0  0  0  0  0  0  0
    3.9749   70.8235   70.5199 H   0  0  0  0  0  0  0  0  0  0  0  0
    6.3484   71.0875   69.9271 H   0  0  0  0  0  0  0  0  0  0  0  0
    5.7810   69.4221   69.5491 H   0  0  0  0  0  0  0  0  0  0  0  0
    6.2367   71.7449   67.6316 H   0  0  0  0  0  0  0  0  0  0  0  0
    7.0551   70.1132   67.6874 H   0  0  0  0  0  0  0  0  0  0  0  0
    1.5760   68.4325   63.9673 H   0  0  0  0  0  0  0  0  0  0  0  0
    2.5548   68.1198   61.7025 H   0  0  0  0  0  0  0  0  0  0  0  0
    4.9515   68.6827   61.3051 H   0  0  0  0  0  0  0  0  0  0  0  0
    6.3448   69.5376   63.1729 H   0  0  0  0  0  0  0  0  0  0  0  0
  2  1  1  0
  3  2  1  0
  4  3  1  0
  6  5  2  0
  7  6  1  0
  8  7  2  0
  9  8  1  0
 10  5  1  0
 10  9  2  0
 11 10  1  0
 12 11  2  0
 13 12  1  0
 14 13  1  0
 15 14  1  0
 16 15  1  0
 17 16  1  0
 17 12  1  0
 18 17  2  0
 18  9  1  0
 18  4  1  0
 19  5  1  0
 20  1  1  0
 21 20  1  0
 22 21  1  0
 23 22  1  0
 24 23  1  0
 25 24  1  0
 26 25  1  0
 27 26  1  0
 28 27  1  0
 29 28  1  0
 30 29  1  0
 31 30  1  0
 32 31  1  0
 32 27  2  0
 33 32  1  0
 34 33  2  0
 35 34  1  0
 35 26  2  0
 36 35  1  0
 37 36  2  0
 38 37  1  0
 39 34  1  0
 39 38  2  0
  1 40  1  0
  1 41  1  0
  2 42  1  0
  2 43  1  0
  3 44  1  0
  3 45  1  0
  4 46  1  0
  6 47  1  0
  7 48  1  0
  8 49  1  0
 13 50  1  0
 13 51  1  0
 14 52  1  0
 14 53  1  0
 15 54  1  0
 15 55  1  0
 16 56  1  0
 16 57  1  0
 19 58  1  0
 19 59  1  0
 20 60  1  0
 20 61  1  0
 21 62  1  0
 21 63  1  0
 22 64  1  0
 22 65  1  0
 23 66  1  0
 23 67  1  0
 24 68  1  0
 24 69  1  0
 25 70  1  0
 28 71  1  0
 28 72  1  0
 29 73  1  0
 29 74  1  0
 30 75  1  0
 30 76  1  0
 31 77  1  0
 31 78  1  0
 36 79  1  0
 37 80  1  0
 38 81  1  0
 39 82  1  0
M  END
>  <score>  (7) 
-12.294

$$$$
=
     RDKit          3D

 82 87  0  0  0  0  0  0  0  0999 V2000
    0.4570   65.5870   70.0120 C   0  0  0  0  0  0  0  0  0  0  0  0
    0.0320   65.6780   71.4820 C   0  0  0  0  0  0  0  0  0  0  0  0
    0.0150   64.3470   72.2390 C   0  0  0  0  0  0  0  0  0  0  0  0
    0.2180   63.2300   71.3040 N   0  0  0  0  0  0  0  0  0  0  0  0
    4.8610   61.7130   71.4090 C   0  0  0  0  0  0  0  0  0  0  0  0
    5.2880   62.8700   70.7470 C   0  0  0  0  0  0  0  0  0  0  0  0
    4.3690   63.8510   70.3990 C   0  0  0  0  0  0  0  0  0  0  0  0
    3.0280   63.6790   70.7320 C   0  0  0  0  0  0  0  0  0  0  0  0
    2.5760   62.5280   71.4190 C   0  0  0  0  0  0  0  0  0  0  0  0
    3.5130   61.5440   71.7840 C   0  0  0  0  0  0  0  0  0  0  0  0
    3.1570   60.4300   72.4560 N   0  0  0  0  0  0  0  0  0  0  0  0
    1.8650   60.2580   72.8190 C   0  0  0  0  0  0  0  0  0  0  0  0
    1.5950   59.0040   73.6120 C   0  0  0  0  0  0  0  0  0  0  0  0
    0.1270   58.5980   73.6140 C   0  0  0  0  0  0  0  0  0  0  0  0
   -0.7350   59.7980   73.9720 C   0  0  0  0  0  0  0  0  0  0  0  0
   -0.5740   60.9020   72.9270 C   0  0  0  0  0  0  0  0  0  0  0  0
    0.8550   61.1780   72.5230 C   0  0  0  0  0  0  0  0  0  0  0  0
    1.2170   62.3250   71.7860 C   0  0  0  0  0  0  0  0  0  0  0  0
    5.8410   60.7860   71.8580 N   0  0  0  0  0  0  0  0  0  0  0  0
    0.1590   66.8210   69.1540 C   0  0  0  0  0  0  0  0  0  0  0  0
   -1.1530   66.7240   68.3720 C   0  0  0  0  0  0  0  0  0  0  0  0
   -1.0920   67.4060   67.0020 C   0  0  0  0  0  0  0  0  0  0  0  0
   -0.5180   68.8270   67.0580 C   0  0  0  0  0  0  0  0  0  0  0  0
    0.5560   69.0670   65.9940 C   0  0  0  0  0  0  0  0  0  0  0  0
    1.7190   68.2090   66.2580 N   0  0  0  0  0  0  0  0  0  0  0  0
    2.9460   68.9000   66.0240 C   0  0  0  0  0  0  0  0  0  0  0  0
    3.5540   69.5690   67.1060 C   0  0  0  0  0  0  0  0  0  0  0  0
    2.8960   69.6130   68.4640 C   0  0  0  0  0  0  0  0  0  0  0  0
    3.4870   70.6660   69.4020 C   0  0  0  0  0  0  0  0  0  0  0  0
    5.0070   70.6100   69.3720 C   0  0  0  0  0  0  0  0  0  0  0  0
    5.5100   70.9300   67.9690 C   0  0  0  0  0  0  0  0  0  0  0  0
    4.7980   70.1600   66.8870 C   0  0  0  0  0  0  0  0  0  0  0  0
    5.4270   70.1370   65.6890 N   0  0  0  0  0  0  0  0  0  0  0  0
    4.8460   69.5040   64.6600 C   0  0  0  0  0  0  0  0  0  0  0  0
    3.5990   68.8540   64.7600 C   0  0  0  0  0  0  0  0  0  0  0  0
    3.0860   68.2020   63.6090 C   0  0  0  0  0  0  0  0  0  0  0  0
    3.7830   68.2020   62.4010 C   0  0  0  0  0  0  0  0  0  0  0  0
    5.0040   68.8510   62.3180 C   0  0  0  0  0  0  0  0  0  0  0  0
    5.5210   69.4910   63.4450 C   0  0  0  0  0  0  0  0  0  0  0  0
    1.5425   65.4112   69.9848 H   0  0  0  0  0  0  0  0  0  0  0  0
   -0.1395   64.7707   69.5786 H   0  0  0  0  0  0  0  0  0  0  0  0
    0.7307   66.3536   71.9971 H   0  0  0  0  0  0  0  0  0  0  0  0
   -1.0066   66.0402   71.4778 H   0  0  0  0  0  0  0  0  0  0  0  0
    0.8201   64.3447   72.9886 H   0  0  0  0  0  0  0  0  0  0  0  0
   -0.9595   64.2280   72.7352 H   0  0  0  0  0  0  0  0  0  0  0  0
   -0.2926   63.1139   70.4170 H   0  0  0  0  0  0  0  0  0  0  0  0
    6.3523   63.0022   70.5023 H   0  0  0  0  0  0  0  0  0  0  0  0
    4.6972   64.7552   69.8654 H   0  0  0  0  0  0  0  0  0  0  0  0
    2.3022   64.4574   70.4540 H   0  0  0  0  0  0  0  0  0  0  0  0
    2.1840   58.1826   73.1780 H   0  0  0  0  0  0  0  0  0  0  0  0
    1.8779   59.2102   74.6548 H   0  0  0  0  0  0  0  0  0  0  0  0
   -0.1526   58.2317   72.6152 H   0  0  0  0  0  0  0  0  0  0  0  0
   -0.0301   57.8016   74.3564 H   0  0  0  0  0  0  0  0  0  0  0  0
   -1.7896   59.4876   74.0115 H   0  0  0  0  0  0  0  0  0  0  0  0
   -0.4175   60.1853   74.9514 H   0  0  0  0  0  0  0  0  0  0  0  0
   -1.1348   60.6081   72.0275 H   0  0  0  0  0  0  0  0  0  0  0  0
   -0.9533   61.8263   73.3872 H   0  0  0  0  0  0  0  0  0  0  0  0
    5.5515   59.9273   72.3476 H   0  0  0  0  0  0  0  0  0  0  0  0
    6.8404   60.9731   71.6937 H   0  0  0  0  0  0  0  0  0  0  0  0
    0.1054   67.6988   69.8148 H   0  0  0  0  0  0  0  0  0  0  0  0
    0.9691   66.9016   68.4142 H   0  0  0  0  0  0  0  0  0  0  0  0
   -1.3930   65.6609   68.2227 H   0  0  0  0  0  0  0  0  0  0  0  0
   -1.9232   67.2433   68.9611 H   0  0  0  0  0  0  0  0  0  0  0  0
   -0.4589   66.7994   66.3377 H   0  0  0  0  0  0  0  0  0  0  0  0
   -2.1244   67.4856   66.6309 H   0  0  0  0  0  0  0  0  0  0  0  0
   -1.3367   69.5447   66.9012 H   0  0  0  0  0  0  0  0  0  0  0  0
   -0.0479   68.9593   68.0436 H   0  0  0  0  0  0  0  0  0  0  0  0
    0.1457   68.8305   65.0012 H   0  0  0  0  0  0  0  0  0  0  0  0
    0.8682   70.1213   66.0246 H   0  0  0  0  0  0  0  0  0  0  0  0
    1.6567   67.2303   66.5729 H   0  0  0  0  0  0  0  0  0  0  0  0
    1.8273   69.8333   68.3246 H   0  0  0  0  0  0  0  0  0  0  0  0
    3.0659   68.6333   68.9344 H   0  0  0  0  0  0  0  0  0  0  0  0
    3.1547   71.6644   69.0813 H   0  0  0  0  0  0  0  0  0  0  0  0
    3.1428   70.4641   70.4271 H   0  0  0  0  0  0  0  0  0  0  0  0
    5.4132   71.3456   70.0818 H   0  0  0  0  0  0  0  0  0  0  0  0
    5.3380   69.5995   69.6539 H   0  0  0  0  0  0  0  0  0  0  0  0
    5.3664   72.0048   67.7840 H   0  0  0  0  0  0  0  0  0  0  0  0
    6.5701   70.6390   67.9303 H   0  0  0  0  0  0  0  0  0  0  0  0
    2.1170   67.6850   63.6708 H   0  0  0  0  0  0  0  0  0  0  0  0
    3.3663   67.6905   61.5208 H   0  0  0  0  0  0  0  0  0  0  0  0
    5.5622   68.8618   61.3702 H   0  0  0  0  0  0  0  0  0  0  0  0
    6.4927   70.0010   63.3696 H   0  0  0  0  0  0  0  0  0  0  0  0
  2  1  1  0
  3  2  1  0
  4  3  1  0
  6  5  2  0
  7  6  1  0
  8  7  2  0
  9  8  1  0
 10  5  1  0
 10  9  2  0
 11 10  1  0
 12 11  2  0
 13 12  1  0
 14 13  1  0
 15 14  1  0
 16 15  1  0
 17 16  1  0
 17 12  1  0
 18 17  2  0
 18  9  1  0
 18  4  1  0
 19  5  1  0
 20  1  1  0
 21 20  1  0
 22 21  1  0
 23 22  1  0
 24 23  1  0
 25 24  1  0
 26 25  1  0
 27 26  1  0
 28 27  1  0
 29 28  1  0
 30 29  1  0
 31 30  1  0
 32 31  1  0
 32 27  2  0
 33 32  1  0
 34 33  2  0
 35 34  1  0
 35 26  2  0
 36 35  1  0
 37 36  2  0
 38 37  1  0
 39 34  1  0
 39 38  2  0
  1 40  1  0
  1 41  1  0
  2 42  1  0
  2 43  1  0
  3 44  1  0
  3 45  1  0
  4 46  1  0
  6 47  1  0
  7 48  1  0
  8 49  1  0
 13 50  1  0
 13 51  1  0
 14 52  1  0
 14 53  1  0
 15 54  1  0
 15 55  1  0
 16 56  1  0
 16 57  1  0
 19 58  1  0
 19 59  1  0
 20 60  1  0
 20 61  1  0
 21 62  1  0
 21 63  1  0
 22 64  1  0
 22 65  1  0
 23 66  1  0
 23 67  1  0
 24 68  1  0
 24 69  1  0
 25 70  1  0
 28 71  1  0
 28 72  1  0
 29 73  1  0
 29 74  1  0
 30 75  1  0
 30 76  1  0
 31 77  1  0
 31 78  1  0
 36 79  1  0
 37 80  1  0
 38 81  1  0
 39 82  1  0
M  END
>  <score>  (8) 
-12.228

$$$$
=
     RDKit          3D

 82 87  0  0  0  0  0  0  0  0999 V2000
    0.9550   66.8300   69.4290 C   0  0  0  0  0  0  0  0  0  0  0  0
    0.3420   67.5860   68.2450 C   0  0  0  0  0  0  0  0  0  0  0  0
    1.1540   67.5330   66.9480 C   0  0  0  0  0  0  0  0  0  0  0  0
    1.3890   68.8930   66.4400 N   0  0  0  0  0  0  0  0  0  0  0  0
    5.6820   70.6300   67.9960 C   0  0  0  0  0  0  0  0  0  0  0  0
    5.1860   70.7850   69.2950 C   0  0  0  0  0  0  0  0  0  0  0  0
    3.8800   70.4180   69.5880 C   0  0  0  0  0  0  0  0  0  0  0  0
    3.0800   69.8780   68.5840 C   0  0  0  0  0  0  0  0  0  0  0  0
    3.5670   69.6910   67.2690 C   0  0  0  0  0  0  0  0  0  0  0  0
    4.8960   70.0500   66.9800 C   0  0  0  0  0  0  0  0  0  0  0  0
    5.4330   69.8830   65.7540 N   0  0  0  0  0  0  0  0  0  0  0  0
    4.6850   69.3300   64.7710 C   0  0  0  0  0  0  0  0  0  0  0  0
    5.4050   69.1440   63.4600 C   0  0  0  0  0  0  0  0  0  0  0  0
    4.4640   68.9610   62.2760 C   0  0  0  0  0  0  0  0  0  0  0  0
    3.4250   67.9020   62.6090 C   0  0  0  0  0  0  0  0  0  0  0  0
    2.5730   68.3450   63.7990 C   0  0  0  0  0  0  0  0  0  0  0  0
    3.3610   68.9220   64.9520 C   0  0  0  0  0  0  0  0  0  0  0  0
    2.7840   69.1310   66.2220 C   0  0  0  0  0  0  0  0  0  0  0  0
    7.0570   70.9010   67.7570 N   0  0  0  0  0  0  0  0  0  0  0  0
    0.1650   65.6130   69.9240 C   0  0  0  0  0  0  0  0  0  0  0  0
    0.1870   65.4430   71.4440 C   0  0  0  0  0  0  0  0  0  0  0  0
    0.0890   63.9810   71.8900 C   0  0  0  0  0  0  0  0  0  0  0  0
    0.4590   63.7710   73.3630 C   0  0  0  0  0  0  0  0  0  0  0  0
    0.7720   62.3080   73.6850 C   0  0  0  0  0  0  0  0  0  0  0  0
    2.2240   62.0890   73.6470 N   0  0  0  0  0  0  0  0  0  0  0  0
    2.6020   61.2640   72.5450 C   0  0  0  0  0  0  0  0  0  0  0  0
    2.4630   59.8670   72.6760 C   0  0  0  0  0  0  0  0  0  0  0  0
    1.9900   59.2480   73.9690 C   0  0  0  0  0  0  0  0  0  0  0  0
    2.2470   57.7440   74.0640 C   0  0  0  0  0  0  0  0  0  0  0  0
    1.8280   57.0530   72.7740 C   0  0  0  0  0  0  0  0  0  0  0  0
    2.6640   57.5750   71.6120 C   0  0  0  0  0  0  0  0  0  0  0  0
    2.7460   59.0790   71.5600 C   0  0  0  0  0  0  0  0  0  0  0  0
    3.1640   59.5910   70.3800 N   0  0  0  0  0  0  0  0  0  0  0  0
    3.2990   60.9190   70.2570 C   0  0  0  0  0  0  0  0  0  0  0  0
    3.0270   61.8210   71.3060 C   0  0  0  0  0  0  0  0  0  0  0  0
    3.1900   63.2090   71.0580 C   0  0  0  0  0  0  0  0  0  0  0  0
    3.6140   63.6830   69.8170 C   0  0  0  0  0  0  0  0  0  0  0  0
    3.8830   62.7830   68.8000 C   0  0  0  0  0  0  0  0  0  0  0  0
    3.7220   61.4160   69.0300 C   0  0  0  0  0  0  0  0  0  0  0  0
    1.9546   66.4837   69.1274 H   0  0  0  0  0  0  0  0  0  0  0  0
    0.9626   67.5425   70.2670 H   0  0  0  0  0  0  0  0  0  0  0  0
   -0.6502   67.1560   68.0433 H   0  0  0  0  0  0  0  0  0  0  0  0
    0.3094   68.6446   68.5421 H   0  0  0  0  0  0  0  0  0  0  0  0
    2.1208   67.0463   67.1442 H   0  0  0  0  0  0  0  0  0  0  0  0
    0.5915   66.9610   66.1955 H   0  0  0  0  0  0  0  0  0  0  0  0
    0.6464   69.5846   66.2639 H   0  0  0  0  0  0  0  0  0  0  0  0
    5.8314   71.1979   70.0843 H   0  0  0  0  0  0  0  0  0  0  0  0
    3.4804   70.5524   70.6040 H   0  0  0  0  0  0  0  0  0  0  0  0
    2.0447   69.5900   68.8191 H   0  0  0  0  0  0  0  0  0  0  0  0
    6.0294   70.0307   63.2758 H   0  0  0  0  0  0  0  0  0  0  0  0
    6.0040   68.2253   63.5449 H   0  0  0  0  0  0  0  0  0  0  0  0
    3.9590   69.9138   62.0591 H   0  0  0  0  0  0  0  0  0  0  0  0
    5.0419   68.6418   61.3961 H   0  0  0  0  0  0  0  0  0  0  0  0
    2.7744   67.7457   61.7359 H   0  0  0  0  0  0  0  0  0  0  0  0
    3.9410   66.9660   62.8690 H   0  0  0  0  0  0  0  0  0  0  0  0
    1.8652   69.1108   63.4489 H   0  0  0  0  0  0  0  0  0  0  0  0
    2.0744   67.4419   64.1809 H   0  0  0  0  0  0  0  0  0  0  0  0
    7.4458   70.7942   66.8092 H   0  0  0  0  0  0  0  0  0  0  0  0
    7.6644   71.2042   68.5316 H   0  0  0  0  0  0  0  0  0  0  0  0
   -0.8810   65.7234   69.6019 H   0  0  0  0  0  0  0  0  0  0  0  0
    0.6445   64.7215   69.4936 H   0  0  0  0  0  0  0  0  0  0  0  0
    1.1277   65.8635   71.8291 H   0  0  0  0  0  0  0  0  0  0  0  0
   -0.6942   65.9661   71.8438 H   0  0  0  0  0  0  0  0  0  0  0  0
   -0.9448   63.6378   71.7372 H   0  0  0  0  0  0  0  0  0  0  0  0
    0.8090   63.4074   71.2879 H   0  0  0  0  0  0  0  0  0  0  0  0
    1.3448   64.3807   73.5948 H   0  0  0  0  0  0  0  0  0  0  0  0
   -0.4074   64.0695   73.9714 H   0  0  0  0  0  0  0  0  0  0  0  0
    0.3925   62.0659   74.6886 H   0  0  0  0  0  0  0  0  0  0  0  0
    0.2878   61.6607   72.9390 H   0  0  0  0  0  0  0  0  0  0  0  0
    2.8869   62.4818   74.3304 H   0  0  0  0  0  0  0  0  0  0  0  0
    2.5123   59.7422   74.8014 H   0  0  0  0  0  0  0  0  0  0  0  0
    0.9000   59.3898   74.0119 H   0  0  0  0  0  0  0  0  0  0  0  0
    3.3192   57.5695   74.2372 H   0  0  0  0  0  0  0  0  0  0  0  0
    1.6583   57.3327   74.8973 H   0  0  0  0  0  0  0  0  0  0  0  0
    1.9805   55.9683   72.8749 H   0  0  0  0  0  0  0  0  0  0  0  0
    0.7658   57.2622   72.5792 H   0  0  0  0  0  0  0  0  0  0  0  0
    3.6836   57.1736   71.7084 H   0  0  0  0  0  0  0  0  0  0  0  0
    2.1723   57.2450   70.6850 H   0  0  0  0  0  0  0  0  0  0  0  0
    2.9769   63.9274   71.8633 H   0  0  0  0  0  0  0  0  0  0  0  0
    3.7338   64.7632   69.6475 H   0  0  0  0  0  0  0  0  0  0  0  0
    4.2214   63.1430   67.8172 H   0  0  0  0  0  0  0  0  0  0  0  0
    3.9366   60.7097   68.2145 H   0  0  0  0  0  0  0  0  0  0  0  0
  2  1  1  0
  3  2  1  0
  4  3  1  0
  6  5  2  0
  7  6  1  0
  8  7  2  0
  9  8  1  0
 10  5  1  0
 10  9  2  0
 11 10  1  0
 12 11  2  0
 13 12  1  0
 14 13  1  0
 15 14  1  0
 16 15  1  0
 17 16  1  0
 17 12  1  0
 18 17  2  0
 18  9  1  0
 18  4  1  0
 19  5  1  0
 20  1  1  0
 21 20  1  0
 22 21  1  0
 23 22  1  0
 24 23  1  0
 25 24  1  0
 26 25  1  0
 27 26  1  0
 28 27  1  0
 29 28  1  0
 30 29  1  0
 31 30  1  0
 32 31  1  0
 32 27  2  0
 33 32  1  0
 34 33  2  0
 35 34  1  0
 35 26  2  0
 36 35  1  0
 37 36  2  0
 38 37  1  0
 39 34  1  0
 39 38  2  0
  1 40  1  0
  1 41  1  0
  2 42  1  0
  2 43  1  0
  3 44  1  0
  3 45  1  0
  4 46  1  0
  6 47  1  0
  7 48  1  0
  8 49  1  0
 13 50  1  0
 13 51  1  0
 14 52  1  0
 14 53  1  0
 15 54  1  0
 15 55  1  0
 16 56  1  0
 16 57  1  0
 19 58  1  0
 19 59  1  0
 20 60  1  0
 20 61  1  0
 21 62  1  0
 21 63  1  0
 22 64  1  0
 22 65  1  0
 23 66  1  0
 23 67  1  0
 24 68  1  0
 24 69  1  0
 25 70  1  0
 28 71  1  0
 28 72  1  0
 29 73  1  0
 29 74  1  0
 30 75  1  0
 30 76  1  0
 31 77  1  0
 31 78  1  0
 36 79  1  0
 37 80  1  0
 38 81  1  0
 39 82  1  0
M  END
>  <score>  (9) 
-12.172

$$$$
