=
     RDKit          3D

 37 40  0  0  0  0  0  0  0  0999 V2000
    0.2450   65.8060   70.3390 C   0  0  0  0  0  0  0  0  0  0  0  0
    1.6490   66.1320   70.0250 C   0  0  0  0  0  0  0  0  0  0  0  0
    1.8490   66.8110   68.8890 C   0  0  0  0  0  0  0  0  0  0  0  0
    0.7340   67.1880   68.0270 C   0  0  0  0  0  0  0  0  0  0  0  0
   -0.5450   66.8000   68.4500 N   0  0  0  0  0  0  0  0  0  0  0  0
   -0.7870   66.1000   69.6170 N   0  0  0  0  0  0  0  0  0  0  0  0
   -1.6070   67.1530   67.6430 C   0  0  0  0  0  0  0  0  0  0  0  0
   -1.5680   67.8030   66.5310 N   0  0  0  0  0  0  0  0  0  0  0  0
   -0.3410   68.2100   66.0640 C   0  0  0  0  0  0  0  0  0  0  0  0
   -0.2150   68.8320   65.0130 O   0  0  0  0  0  0  0  0  0  0  0  0
    0.8910   67.8770   66.8740 C   0  0  0  0  0  0  0  0  0  0  0  0
    2.1990   68.3290   66.3490 C   0  0  0  0  0  0  0  0  0  0  0  0
    2.8700   69.4220   66.9280 C   0  0  0  0  0  0  0  0  0  0  0  0
    2.1880   70.3210   68.2400 Cl  0  0  0  0  0  0  0  0  0  0  0  0
    4.1160   69.8340   66.4440 C   0  0  0  0  0  0  0  0  0  0  0  0
    4.7120   69.1620   65.3800 C   0  0  0  0  0  0  0  0  0  0  0  0
    4.0620   68.0780   64.7940 C   0  0  0  0  0  0  0  0  0  0  0  0
    2.8160   67.6620   65.2750 C   0  0  0  0  0  0  0  0  0  0  0  0
    2.0650   66.3190   64.4830 Cl  0  0  0  0  0  0  0  0  0  0  0  0
    0.0450   64.9180   71.8370 S   0  0  0  0  0  0  0  0  0  0  0  0
    3.8130   60.4580   70.9070 F   0  0  0  0  0  0  0  0  0  0  0  0
    2.9600   61.4660   71.1290 C   0  0  0  0  0  0  0  0  0  0  0  0
    2.2430   62.0000   70.0630 C   0  0  0  0  0  0  0  0  0  0  0  0
    1.3520   63.0530   70.2860 C   0  0  0  0  0  0  0  0  0  0  0  0
    1.1800   63.5660   71.5780 C   0  0  0  0  0  0  0  0  0  0  0  0
    1.9230   63.0130   72.6300 C   0  0  0  0  0  0  0  0  0  0  0  0
    2.8100   61.9640   72.4150 C   0  0  0  0  0  0  0  0  0  0  0  0
    1.7960   63.4960   73.8770 F   0  0  0  0  0  0  0  0  0  0  0  0
    2.4792   65.8357   70.6830 H   0  0  0  0  0  0  0  0  0  0  0  0
    2.8730   67.0899   68.6000 H   0  0  0  0  0  0  0  0  0  0  0  0
   -2.6040   66.8432   67.9895 H   0  0  0  0  0  0  0  0  0  0  0  0
    4.6269   70.6919   66.9055 H   0  0  0  0  0  0  0  0  0  0  0  0
    5.6933   69.4861   65.0032 H   0  0  0  0  0  0  0  0  0  0  0  0
    4.5296   67.5480   63.9511 H   0  0  0  0  0  0  0  0  0  0  0  0
    2.3769   61.5950   69.0491 H   0  0  0  0  0  0  0  0  0  0  0  0
    0.7848   63.4797   69.4457 H   0  0  0  0  0  0  0  0  0  0  0  0
    3.3832   61.5362   73.2507 H   0  0  0  0  0  0  0  0  0  0  0  0
  2  1  1  0
  3  2  2  0
  4  3  1  0
  5  4  1  0
  6  5  1  0
  6  1  2  0
  7  5  1  0
  8  7  2  0
  9  8  1  0
 10  9  2  0
 11  9  1  0
 11  4  2  0
 12 11  1  0
 13 12  2  0
 14 13  1  0
 15 13  1  0
 16 15  2  0
 17 16  1  0
 18 17  2  0
 18 12  1  0
 19 18  1  0
 20  1  1  0
 22 21  1  0
 23 22  2  0
 24 23  1  0
 25 24  2  0
 25 20  1  0
 26 25  1  0
 27 26  2  0
 27 22  1  0
 28 26  1  0
  2 29  1  0
  3 30  1  0
  7 31  1  0
 15 32  1  0
 16 33  1  0
 17 34  1  0
 23 35  1  0
 24 36  1  0
 27 37  1  0
M  END
>  <score>  (1) 
-10.139

$$$$
=
     RDKit          3D

 37 40  0  0  0  0  0  0  0  0999 V2000
    0.2430   65.7900   70.4510 C   0  0  0  0  0  0  0  0  0  0  0  0
    1.6480   66.1040   70.1290 C   0  0  0  0  0  0  0  0  0  0  0  0
    1.8490   66.7650   68.9820 C   0  0  0  0  0  0  0  0  0  0  0  0
    0.7330   67.1350   68.1180 C   0  0  0  0  0  0  0  0  0  0  0  0
   -0.5460   66.7590   68.5490 N   0  0  0  0  0  0  0  0  0  0  0  0
   -0.7890   66.0780   69.7270 N   0  0  0  0  0  0  0  0  0  0  0  0
   -1.6080   67.1060   67.7400 C   0  0  0  0  0  0  0  0  0  0  0  0
   -1.5690   67.7390   66.6180 N   0  0  0  0  0  0  0  0  0  0  0  0
   -0.3410   68.1330   66.1420 C   0  0  0  0  0  0  0  0  0  0  0  0
   -0.2140   68.7390   65.0810 O   0  0  0  0  0  0  0  0  0  0  0  0
    0.8910   67.8060   66.9540 C   0  0  0  0  0  0  0  0  0  0  0  0
    2.2000   68.2440   66.4200 C   0  0  0  0  0  0  0  0  0  0  0  0
    2.8090   67.5620   65.3510 C   0  0  0  0  0  0  0  0  0  0  0  0
    2.0920   66.1550   64.6400 Cl  0  0  0  0  0  0  0  0  0  0  0  0
    4.0360   67.9900   64.8340 C   0  0  0  0  0  0  0  0  0  0  0  0
    4.6720   69.1060   65.3730 C   0  0  0  0  0  0  0  0  0  0  0  0
    4.0840   69.7940   66.4320 C   0  0  0  0  0  0  0  0  0  0  0  0
    2.8560   69.3690   66.9510 C   0  0  0  0  0  0  0  0  0  0  0  0
    2.2010   70.2660   68.2780 Cl  0  0  0  0  0  0  0  0  0  0  0  0
    0.0430   64.9240   71.9620 S   0  0  0  0  0  0  0  0  0  0  0  0
    3.8750   60.4740   71.2830 F   0  0  0  0  0  0  0  0  0  0  0  0
    3.0050   61.4810   71.4260 C   0  0  0  0  0  0  0  0  0  0  0  0
    2.9980   62.2160   72.6080 C   0  0  0  0  0  0  0  0  0  0  0  0
    2.0930   63.2680   72.7660 C   0  0  0  0  0  0  0  0  0  0  0  0
    1.1970   63.5830   71.7350 C   0  0  0  0  0  0  0  0  0  0  0  0
    1.2210   62.8200   70.5600 C   0  0  0  0  0  0  0  0  0  0  0  0
    2.1210   61.7720   70.3970 C   0  0  0  0  0  0  0  0  0  0  0  0
    0.3620   63.0840   69.5620 F   0  0  0  0  0  0  0  0  0  0  0  0
    2.4782   65.8134   70.7896 H   0  0  0  0  0  0  0  0  0  0  0  0
    2.8737   67.0338   68.6858 H   0  0  0  0  0  0  0  0  0  0  0  0
   -2.6057   66.8073   68.0942 H   0  0  0  0  0  0  0  0  0  0  0  0
    4.5001   67.4439   63.9995 H   0  0  0  0  0  0  0  0  0  0  0  0
    5.6357   69.4430   64.9636 H   0  0  0  0  0  0  0  0  0  0  0  0
    4.5863   70.6735   66.8613 H   0  0  0  0  0  0  0  0  0  0  0  0
    3.7032   61.9690   73.4153 H   0  0  0  0  0  0  0  0  0  0  0  0
    2.0833   63.8495   73.6997 H   0  0  0  0  0  0  0  0  0  0  0  0
    2.1317   61.1837   69.4676 H   0  0  0  0  0  0  0  0  0  0  0  0
  2  1  1  0
  3  2  2  0
  4  3  1  0
  5  4  1  0
  6  5  1  0
  6  1  2  0
  7  5  1  0
  8  7  2  0
  9  8  1  0
 10  9  2  0
 11  9  1  0
 11  4  2  0
 12 11  1  0
 13 12  2  0
 14 13  1  0
 15 13  1  0
 16 15  2  0
 17 16  1  0
 18 17  2  0
 18 12  1  0
 19 18  1  0
 20  1  1  0
 22 21  1  0
 23 22  2  0
 24 23  1  0
 25 24  2  0
 25 20  1  0
 26 25  1  0
 27 26  2  0
 27 22  1  0
 28 26  1  0
  2 29  1  0
  3 30  1  0
  7 31  1  0
 15 32  1  0
 16 33  1  0
 17 34  1  0
 23 35  1  0
 24 36  1  0
 27 37  1  0
M  END
>  <score>  (2) 
-9.603

$$$$
=
     RDKit          3D

 37 40  0  0  0  0  0  0  0  0999 V2000
    0.8060   64.6450   71.1280 C   0  0  0  0  0  0  0  0  0  0  0  0
    0.2320   63.3620   71.5730 C   0  0  0  0  0  0  0  0  0  0  0  0
    1.0880   62.3360   71.6480 C   0  0  0  0  0  0  0  0  0  0  0  0
    2.4950   62.4990   71.2990 C   0  0  0  0  0  0  0  0  0  0  0  0
    2.8940   63.7750   70.8810 N   0  0  0  0  0  0  0  0  0  0  0  0
    2.0370   64.8560   70.7940 N   0  0  0  0  0  0  0  0  0  0  0  0
    4.2230   63.9400   70.5500 C   0  0  0  0  0  0  0  0  0  0  0  0
    5.1570   63.0530   70.5740 N   0  0  0  0  0  0  0  0  0  0  0  0
    4.8260   61.7790   70.9750 C   0  0  0  0  0  0  0  0  0  0  0  0
    5.6540   60.8740   71.0250 O   0  0  0  0  0  0  0  0  0  0  0  0
    3.3940   61.4900   71.3630 C   0  0  0  0  0  0  0  0  0  0  0  0
    3.0660   60.1120   71.7930 C   0  0  0  0  0  0  0  0  0  0  0  0
    2.7810   59.8250   73.1410 C   0  0  0  0  0  0  0  0  0  0  0  0
    2.8470   61.0440   74.3670 Cl  0  0  0  0  0  0  0  0  0  0  0  0
    2.4500   58.5260   73.5410 C   0  0  0  0  0  0  0  0  0  0  0  0
    2.3960   57.4970   72.6050 C   0  0  0  0  0  0  0  0  0  0  0  0
    2.6750   57.7630   71.2660 C   0  0  0  0  0  0  0  0  0  0  0  0
    3.0050   59.0600   70.8610 C   0  0  0  0  0  0  0  0  0  0  0  0
    3.3570   59.3050   69.1840 Cl  0  0  0  0  0  0  0  0  0  0  0  0
   -0.3620   65.9510   71.0490 S   0  0  0  0  0  0  0  0  0  0  0  0
    0.5620   68.0040   65.5820 F   0  0  0  0  0  0  0  0  0  0  0  0
    0.3640   67.5410   66.8230 C   0  0  0  0  0  0  0  0  0  0  0  0
   -0.8130   66.8590   67.1170 C   0  0  0  0  0  0  0  0  0  0  0  0
   -1.0290   66.3740   68.4100 C   0  0  0  0  0  0  0  0  0  0  0  0
   -0.0610   66.5700   69.4030 C   0  0  0  0  0  0  0  0  0  0  0  0
    1.1100   67.2680   69.0790 C   0  0  0  0  0  0  0  0  0  0  0  0
    1.3310   67.7520   67.7950 C   0  0  0  0  0  0  0  0  0  0  0  0
    2.0480   67.4900   70.0150 F   0  0  0  0  0  0  0  0  0  0  0  0
   -0.8328   63.2548   71.8274 H   0  0  0  0  0  0  0  0  0  0  0  0
    0.7241   61.3521   71.9788 H   0  0  0  0  0  0  0  0  0  0  0  0
    4.5206   64.9486   70.2273 H   0  0  0  0  0  0  0  0  0  0  0  0
    2.2317   58.3170   74.5987 H   0  0  0  0  0  0  0  0  0  0  0  0
    2.1338   56.4767   72.9216 H   0  0  0  0  0  0  0  0  0  0  0  0
    2.6355   56.9505   70.5256 H   0  0  0  0  0  0  0  0  0  0  0  0
   -1.5704   66.7022   66.3348 H   0  0  0  0  0  0  0  0  0  0  0  0
   -1.9597   65.8381   68.6478 H   0  0  0  0  0  0  0  0  0  0  0  0
    2.2575   68.2935   67.5535 H   0  0  0  0  0  0  0  0  0  0  0  0
  2  1  1  0
  3  2  2  0
  4  3  1  0
  5  4  1  0
  6  5  1  0
  6  1  2  0
  7  5  1  0
  8  7  2  0
  9  8  1  0
 10  9  2  0
 11  9  1  0
 11  4  2  0
 12 11  1  0
 13 12  2  0
 14 13  1  0
 15 13  1  0
 16 15  2  0
 17 16  1  0
 18 17  2  0
 18 12  1  0
 19 18  1  0
 20  1  1  0
 22 21  1  0
 23 22  2  0
 24 23  1  0
 25 24  2  0
 25 20  1  0
 26 25  1  0
 27 26  2  0
 27 22  1  0
 28 26  1  0
  2 29  1  0
  3 30  1  0
  7 31  1  0
 15 32  1  0
 16 33  1  0
 17 34  1  0
 23 35  1  0
 24 36  1  0
 27 37  1  0
M  END
>  <score>  (3) 
-9.007

$$$$
=
     RDKit          3D

 37 40  0  0  0  0  0  0  0  0999 V2000
   -0.0320   58.2230   74.6350 C   0  0  0  0  0  0  0  0  0  0  0  0
   -0.5040   59.2130   73.6490 C   0  0  0  0  0  0  0  0  0  0  0  0
    0.4480   59.9420   73.0540 C   0  0  0  0  0  0  0  0  0  0  0  0
    1.8580   59.7560   73.3820 C   0  0  0  0  0  0  0  0  0  0  0  0
    2.1540   58.7840   74.3470 N   0  0  0  0  0  0  0  0  0  0  0  0
    1.1970   58.0140   74.9790 N   0  0  0  0  0  0  0  0  0  0  0  0
    3.4840   58.5990   74.6640 C   0  0  0  0  0  0  0  0  0  0  0  0
    4.5030   59.2200   74.1760 N   0  0  0  0  0  0  0  0  0  0  0  0
    4.2750   60.1860   73.2250 C   0  0  0  0  0  0  0  0  0  0  0  0
    5.1890   60.8250   72.7110 O   0  0  0  0  0  0  0  0  0  0  0  0
    2.8520   60.4670   72.8030 C   0  0  0  0  0  0  0  0  0  0  0  0
    2.6350   61.5110   71.7750 C   0  0  0  0  0  0  0  0  0  0  0  0
    2.2130   62.8030   72.1360 C   0  0  0  0  0  0  0  0  0  0  0  0
    1.8780   63.2280   73.7800 Cl  0  0  0  0  0  0  0  0  0  0  0  0
    2.0290   63.7930   71.1650 C   0  0  0  0  0  0  0  0  0  0  0  0
    2.2660   63.5100   69.8220 C   0  0  0  0  0  0  0  0  0  0  0  0
    2.6840   62.2360   69.4460 C   0  0  0  0  0  0  0  0  0  0  0  0
    2.8700   61.2420   70.4140 C   0  0  0  0  0  0  0  0  0  0  0  0
    3.3730   59.6800   69.8650 Cl  0  0  0  0  0  0  0  0  0  0  0  0
   -1.3230   57.3000   75.3800 S   0  0  0  0  0  0  0  0  0  0  0  0
    0.9420   51.8400   75.2740 F   0  0  0  0  0  0  0  0  0  0  0  0
    0.4310   53.0770   75.2870 C   0  0  0  0  0  0  0  0  0  0  0  0
    0.1940   53.7060   76.5060 C   0  0  0  0  0  0  0  0  0  0  0  0
   -0.3400   54.9960   76.5290 C   0  0  0  0  0  0  0  0  0  0  0  0
   -0.6320   55.6560   75.3280 C   0  0  0  0  0  0  0  0  0  0  0  0
   -0.3910   54.9940   74.1160 C   0  0  0  0  0  0  0  0  0  0  0  0
    0.1420   53.7100   74.0870 C   0  0  0  0  0  0  0  0  0  0  0  0
   -0.6790   55.5910   72.9480 F   0  0  0  0  0  0  0  0  0  0  0  0
   -1.5713   59.3441   73.4171 H   0  0  0  0  0  0  0  0  0  0  0  0
    0.1626   60.6947   72.3044 H   0  0  0  0  0  0  0  0  0  0  0  0
    3.7003   57.8317   75.4220 H   0  0  0  0  0  0  0  0  0  0  0  0
    1.6961   64.7982   71.4630 H   0  0  0  0  0  0  0  0  0  0  0  0
    2.1234   64.2908   69.0604 H   0  0  0  0  0  0  0  0  0  0  0  0
    2.8685   62.0101   68.3854 H   0  0  0  0  0  0  0  0  0  0  0  0
    0.4267   53.1884   77.4483 H   0  0  0  0  0  0  0  0  0  0  0  0
   -0.5316   55.4945   77.4907 H   0  0  0  0  0  0  0  0  0  0  0  0
    0.3313   53.2047   73.1285 H   0  0  0  0  0  0  0  0  0  0  0  0
  2  1  1  0
  3  2  2  0
  4  3  1  0
  5  4  1  0
  6  5  1  0
  6  1  2  0
  7  5  1  0
  8  7  2  0
  9  8  1  0
 10  9  2  0
 11  9  1  0
 11  4  2  0
 12 11  1  0
 13 12  2  0
 14 13  1  0
 15 13  1  0
 16 15  2  0
 17 16  1  0
 18 17  2  0
 18 12  1  0
 19 18  1  0
 20  1  1  0
 22 21  1  0
 23 22  2  0
 24 23  1  0
 25 24  2  0
 25 20  1  0
 26 25  1  0
 27 26  2  0
 27 22  1  0
 28 26  1  0
  2 29  1  0
  3 30  1  0
  7 31  1  0
 15 32  1  0
 16 33  1  0
 17 34  1  0
 23 35  1  0
 24 36  1  0
 27 37  1  0
M  END
>  <score>  (4) 
-8.846

$$$$
=
     RDKit          3D

 37 40  0  0  0  0  0  0  0  0999 V2000
    0.8080   64.7530   70.9090 C   0  0  0  0  0  0  0  0  0  0  0  0
    0.2200   63.4670   71.3290 C   0  0  0  0  0  0  0  0  0  0  0  0
    1.0820   62.4540   71.4750 C   0  0  0  0  0  0  0  0  0  0  0  0
    2.5080   62.6310   71.2210 C   0  0  0  0  0  0  0  0  0  0  0  0
    2.9180   63.9080   70.8160 N   0  0  0  0  0  0  0  0  0  0  0  0
    2.0560   64.9770   70.6570 N   0  0  0  0  0  0  0  0  0  0  0  0
    4.2650   64.0870   70.5750 C   0  0  0  0  0  0  0  0  0  0  0  0
    5.2060   63.2120   70.6740 N   0  0  0  0  0  0  0  0  0  0  0  0
    4.8640   61.9390   71.0670 C   0  0  0  0  0  0  0  0  0  0  0  0
    5.6980   61.0460   71.1850 O   0  0  0  0  0  0  0  0  0  0  0  0
    3.4130   61.6350   71.3600 C   0  0  0  0  0  0  0  0  0  0  0  0
    3.0730   60.2580   71.7830 C   0  0  0  0  0  0  0  0  0  0  0  0
    3.0900   59.1950   70.8620 C   0  0  0  0  0  0  0  0  0  0  0  0
    3.4560   59.4430   69.1880 Cl  0  0  0  0  0  0  0  0  0  0  0  0
    2.7880   57.8910   71.2680 C   0  0  0  0  0  0  0  0  0  0  0  0
    2.4700   57.6280   72.5980 C   0  0  0  0  0  0  0  0  0  0  0  0
    2.4480   58.6680   73.5240 C   0  0  0  0  0  0  0  0  0  0  0  0
    2.7490   59.9740   73.1220 C   0  0  0  0  0  0  0  0  0  0  0  0
    2.6830   61.2140   74.3280 Cl  0  0  0  0  0  0  0  0  0  0  0  0
   -0.3680   66.0420   70.7340 S   0  0  0  0  0  0  0  0  0  0  0  0
    1.5140   68.5110   65.7030 F   0  0  0  0  0  0  0  0  0  0  0  0
    1.0770   67.9510   66.8380 C   0  0  0  0  0  0  0  0  0  0  0  0
    1.8990   67.9550   67.9610 C   0  0  0  0  0  0  0  0  0  0  0  0
    1.4520   67.3720   69.1490 C   0  0  0  0  0  0  0  0  0  0  0  0
    0.1790   66.7900   69.2100 C   0  0  0  0  0  0  0  0  0  0  0  0
   -0.6230   66.7940   68.0590 C   0  0  0  0  0  0  0  0  0  0  0  0
   -0.1830   67.3730   66.8750 C   0  0  0  0  0  0  0  0  0  0  0  0
   -1.8400   66.2260   68.0790 F   0  0  0  0  0  0  0  0  0  0  0  0
   -0.8584   63.3483   71.5106 H   0  0  0  0  0  0  0  0  0  0  0  0
    0.7086   61.4692   71.7925 H   0  0  0  0  0  0  0  0  0  0  0  0
    4.5717   65.0957   70.2613 H   0  0  0  0  0  0  0  0  0  0  0  0
    2.8017   57.0711   70.5348 H   0  0  0  0  0  0  0  0  0  0  0  0
    2.2367   56.6013   72.9164 H   0  0  0  0  0  0  0  0  0  0  0  0
    2.1933   58.4622   74.5741 H   0  0  0  0  0  0  0  0  0  0  0  0
    2.8968   68.4155   67.9132 H   0  0  0  0  0  0  0  0  0  0  0  0
    2.1002   67.3698   70.0377 H   0  0  0  0  0  0  0  0  0  0  0  0
   -0.8240   67.3729   65.9811 H   0  0  0  0  0  0  0  0  0  0  0  0
  2  1  1  0
  3  2  2  0
  4  3  1  0
  5  4  1  0
  6  5  1  0
  6  1  2  0
  7  5  1  0
  8  7  2  0
  9  8  1  0
 10  9  2  0
 11  9  1  0
 11  4  2  0
 12 11  1  0
 13 12  2  0
 14 13  1  0
 15 13  1  0
 16 15  2  0
 17 16  1  0
 18 17  2  0
 18 12  1  0
 19 18  1  0
 20  1  1  0
 22 21  1  0
 23 22  2  0
 24 23  1  0
 25 24  2  0
 25 20  1  0
 26 25  1  0
 27 26  2  0
 27 22  1  0
 28 26  1  0
  2 29  1  0
  3 30  1  0
  7 31  1  0
 15 32  1  0
 16 33  1  0
 17 34  1  0
 23 35  1  0
 24 36  1  0
 27 37  1  0
M  END
>  <score>  (5) 
-8.762

$$$$
=
     RDKit          3D

 37 40  0  0  0  0  0  0  0  0999 V2000
    3.3670   59.0840   72.4310 C   0  0  0  0  0  0  0  0  0  0  0  0
    2.3170   58.1310   72.0250 C   0  0  0  0  0  0  0  0  0  0  0  0
    1.6860   57.5000   73.0220 C   0  0  0  0  0  0  0  0  0  0  0  0
    2.0380   57.7490   74.4170 C   0  0  0  0  0  0  0  0  0  0  0  0
    3.0640   58.6730   74.6490 N   0  0  0  0  0  0  0  0  0  0  0  0
    3.7340   59.3440   73.6440 N   0  0  0  0  0  0  0  0  0  0  0  0
    3.4030   58.9180   75.9640 C   0  0  0  0  0  0  0  0  0  0  0  0
    2.8870   58.3910   77.0210 N   0  0  0  0  0  0  0  0  0  0  0  0
    1.8750   57.4740   76.8560 C   0  0  0  0  0  0  0  0  0  0  0  0
    1.3310   56.9240   77.8090 O   0  0  0  0  0  0  0  0  0  0  0  0
    1.4240   57.1350   75.4540 C   0  0  0  0  0  0  0  0  0  0  0  0
    0.3310   56.1470   75.3060 C   0  0  0  0  0  0  0  0  0  0  0  0
    0.6120   54.7750   75.1750 C   0  0  0  0  0  0  0  0  0  0  0  0
    2.2350   54.1760   75.1290 Cl  0  0  0  0  0  0  0  0  0  0  0  0
   -0.4230   53.8420   75.0560 C   0  0  0  0  0  0  0  0  0  0  0  0
   -1.7510   54.2620   75.0690 C   0  0  0  0  0  0  0  0  0  0  0  0
   -2.0470   55.6170   75.1980 C   0  0  0  0  0  0  0  0  0  0  0  0
   -1.0150   56.5540   75.3180 C   0  0  0  0  0  0  0  0  0  0  0  0
   -1.4650   58.2200   75.4560 Cl  0  0  0  0  0  0  0  0  0  0  0  0
    4.1570   59.8800   71.0830 S   0  0  0  0  0  0  0  0  0  0  0  0
    1.2260   65.0150   71.0480 F   0  0  0  0  0  0  0  0  0  0  0  0
    1.8990   63.8570   71.0510 C   0  0  0  0  0  0  0  0  0  0  0  0
    1.2260   62.6770   71.3550 C   0  0  0  0  0  0  0  0  0  0  0  0
    1.9200   61.4650   71.3620 C   0  0  0  0  0  0  0  0  0  0  0  0
    3.2880   61.4380   71.0590 C   0  0  0  0  0  0  0  0  0  0  0  0
    3.9400   62.6440   70.7660 C   0  0  0  0  0  0  0  0  0  0  0  0
    3.2540   63.8530   70.7560 C   0  0  0  0  0  0  0  0  0  0  0  0
    5.2550   62.6540   70.4920 F   0  0  0  0  0  0  0  0  0  0  0  0
    2.0683   57.9504   70.9688 H   0  0  0  0  0  0  0  0  0  0  0  0
    0.8877   56.7808   72.7865 H   0  0  0  0  0  0  0  0  0  0  0  0
    4.2082   59.6489   76.1296 H   0  0  0  0  0  0  0  0  0  0  0  0
   -0.1875   52.7726   74.9518 H   0  0  0  0  0  0  0  0  0  0  0  0
   -2.5634   53.5260   74.9777 H   0  0  0  0  0  0  0  0  0  0  0  0
   -3.0950   55.9512   75.2055 H   0  0  0  0  0  0  0  0  0  0  0  0
    0.1514   62.6990   71.5889 H   0  0  0  0  0  0  0  0  0  0  0  0
    1.3925   60.5310   71.6055 H   0  0  0  0  0  0  0  0  0  0  0  0
    3.7772   64.7909   70.5181 H   0  0  0  0  0  0  0  0  0  0  0  0
  2  1  1  0
  3  2  2  0
  4  3  1  0
  5  4  1  0
  6  5  1  0
  6  1  2  0
  7  5  1  0
  8  7  2  0
  9  8  1  0
 10  9  2  0
 11  9  1  0
 11  4  2  0
 12 11  1  0
 13 12  2  0
 14 13  1  0
 15 13  1  0
 16 15  2  0
 17 16  1  0
 18 17  2  0
 18 12  1  0
 19 18  1  0
 20  1  1  0
 22 21  1  0
 23 22  2  0
 24 23  1  0
 25 24  2  0
 25 20  1  0
 26 25  1  0
 27 26  2  0
 27 22  1  0
 28 26  1  0
  2 29  1  0
  3 30  1  0
  7 31  1  0
 15 32  1  0
 16 33  1  0
 17 34  1  0
 23 35  1  0
 24 36  1  0
 27 37  1  0
M  END
>  <score>  (6) 
-8.381

$$$$
=
     RDKit          3D

 37 40  0  0  0  0  0  0  0  0999 V2000
    3.4430   59.0690   72.6970 C   0  0  0  0  0  0  0  0  0  0  0  0
    2.1800   58.3930   72.3470 C   0  0  0  0  0  0  0  0  0  0  0  0
    1.6330   57.6450   73.3120 C   0  0  0  0  0  0  0  0  0  0  0  0
    2.2690   57.5140   74.6190 C   0  0  0  0  0  0  0  0  0  0  0  0
    3.4730   58.2070   74.8030 N   0  0  0  0  0  0  0  0  0  0  0  0
    4.0640   58.9890   73.8290 N   0  0  0  0  0  0  0  0  0  0  0  0
    4.0820   58.0920   76.0350 C   0  0  0  0  0  0  0  0  0  0  0  0
    3.6750   57.4140   77.0540 N   0  0  0  0  0  0  0  0  0  0  0  0
    2.4990   56.7120   76.9340 C   0  0  0  0  0  0  0  0  0  0  0  0
    2.0420   56.0400   77.8540 O   0  0  0  0  0  0  0  0  0  0  0  0
    1.7490   56.7720   75.6230 C   0  0  0  0  0  0  0  0  0  0  0  0
    0.4840   56.0090   75.5220 C   0  0  0  0  0  0  0  0  0  0  0  0
   -0.7400   56.5870   75.9050 C   0  0  0  0  0  0  0  0  0  0  0  0
   -0.8290   58.1880   76.5560 Cl  0  0  0  0  0  0  0  0  0  0  0  0
   -1.9360   55.8710   75.7880 C   0  0  0  0  0  0  0  0  0  0  0  0
   -1.9300   54.5720   75.2860 C   0  0  0  0  0  0  0  0  0  0  0  0
   -0.7270   53.9840   74.9020 C   0  0  0  0  0  0  0  0  0  0  0  0
    0.4720   54.6960   75.0160 C   0  0  0  0  0  0  0  0  0  0  0  0
    1.9260   53.8890   74.5360 Cl  0  0  0  0  0  0  0  0  0  0  0  0
    4.1120   60.0340   71.3950 S   0  0  0  0  0  0  0  0  0  0  0  0
    0.4700   64.6900   71.5200 F   0  0  0  0  0  0  0  0  0  0  0  0
    1.2920   63.6340   71.4810 C   0  0  0  0  0  0  0  0  0  0  0  0
    1.7940   63.1140   72.6710 C   0  0  0  0  0  0  0  0  0  0  0  0
    2.6530   62.0130   72.6380 C   0  0  0  0  0  0  0  0  0  0  0  0
    3.0050   61.4330   71.4130 C   0  0  0  0  0  0  0  0  0  0  0  0
    2.4910   61.9840   70.2310 C   0  0  0  0  0  0  0  0  0  0  0  0
    1.6340   63.0790   70.2560 C   0  0  0  0  0  0  0  0  0  0  0  0
    2.8250   61.4630   69.0390 F   0  0  0  0  0  0  0  0  0  0  0  0
    1.7167   58.4972   71.3548 H   0  0  0  0  0  0  0  0  0  0  0  0
    0.6867   57.1192   73.1168 H   0  0  0  0  0  0  0  0  0  0  0  0
    5.0253   58.6430   76.1637 H   0  0  0  0  0  0  0  0  0  0  0  0
   -2.8849   56.3358   76.0937 H   0  0  0  0  0  0  0  0  0  0  0  0
   -2.8722   54.0121   75.1930 H   0  0  0  0  0  0  0  0  0  0  0  0
   -0.7197   52.9570   74.5080 H   0  0  0  0  0  0  0  0  0  0  0  0
    1.5153   63.5683   73.6332 H   0  0  0  0  0  0  0  0  0  0  0  0
    3.0536   61.6009   73.5759 H   0  0  0  0  0  0  0  0  0  0  0  0
    1.2341   63.4979   69.3208 H   0  0  0  0  0  0  0  0  0  0  0  0
  2  1  1  0
  3  2  2  0
  4  3  1  0
  5  4  1  0
  6  5  1  0
  6  1  2  0
  7  5  1  0
  8  7  2  0
  9  8  1  0
 10  9  2  0
 11  9  1  0
 11  4  2  0
 12 11  1  0
 13 12  2  0
 14 13  1  0
 15 13  1  0
 16 15  2  0
 17 16  1  0
 18 17  2  0
 18 12  1  0
 19 18  1  0
 20  1  1  0
 22 21  1  0
 23 22  2  0
 24 23  1  0
 25 24  2  0
 25 20  1  0
 26 25  1  0
 27 26  2  0
 27 22  1  0
 28 26  1  0
  2 29  1  0
  3 30  1  0
  7 31  1  0
 15 32  1  0
 16 33  1  0
 17 34  1  0
 23 35  1  0
 24 36  1  0
 27 37  1  0
M  END
>  <score>  (7) 
-8.337

$$$$
=
     RDKit          3D

 37 40  0  0  0  0  0  0  0  0999 V2000
   -0.7060   58.7720   74.7370 C   0  0  0  0  0  0  0  0  0  0  0  0
   -0.9370   59.7060   73.6200 C   0  0  0  0  0  0  0  0  0  0  0  0
    0.1610   60.1940   73.0310 C   0  0  0  0  0  0  0  0  0  0  0  0
    1.4940   59.8160   73.4880 C   0  0  0  0  0  0  0  0  0  0  0  0
    1.5580   58.9260   74.5690 N   0  0  0  0  0  0  0  0  0  0  0  0
    0.4450   58.4030   75.1990 N   0  0  0  0  0  0  0  0  0  0  0  0
    2.8140   58.5610   75.0080 C   0  0  0  0  0  0  0  0  0  0  0  0
    3.9530   58.9430   74.5420 N   0  0  0  0  0  0  0  0  0  0  0  0
    3.9550   59.8180   73.4800 C   0  0  0  0  0  0  0  0  0  0  0  0
    4.9950   60.2340   72.9780 O   0  0  0  0  0  0  0  0  0  0  0  0
    2.6300   60.2810   72.9190 C   0  0  0  0  0  0  0  0  0  0  0  0
    2.6610   61.2200   71.7760 C   0  0  0  0  0  0  0  0  0  0  0  0
    2.9720   60.7700   70.4800 C   0  0  0  0  0  0  0  0  0  0  0  0
    3.3830   59.1190   70.1620 Cl  0  0  0  0  0  0  0  0  0  0  0  0
    2.9800   61.6560   69.3970 C   0  0  0  0  0  0  0  0  0  0  0  0
    2.6740   63.0000   69.5900 C   0  0  0  0  0  0  0  0  0  0  0  0
    2.3640   63.4640   70.8660 C   0  0  0  0  0  0  0  0  0  0  0  0
    2.3540   62.5820   71.9520 C   0  0  0  0  0  0  0  0  0  0  0  0
    1.9760   63.2390   73.5080 Cl  0  0  0  0  0  0  0  0  0  0  0  0
   -2.1810   58.1680   75.4690 S   0  0  0  0  0  0  0  0  0  0  0  0
   -5.5490   63.0260   75.4770 F   0  0  0  0  0  0  0  0  0  0  0  0
   -4.7780   61.9320   75.4800 C   0  0  0  0  0  0  0  0  0  0  0  0
   -5.1430   60.8370   74.7020 C   0  0  0  0  0  0  0  0  0  0  0  0
   -4.3450   59.6900   74.7010 C   0  0  0  0  0  0  0  0  0  0  0  0
   -3.1800   59.6460   75.4780 C   0  0  0  0  0  0  0  0  0  0  0  0
   -2.8430   60.7600   76.2580 C   0  0  0  0  0  0  0  0  0  0  0  0
   -3.6330   61.9050   76.2630 C   0  0  0  0  0  0  0  0  0  0  0  0
   -1.7440   60.7410   77.0290 F   0  0  0  0  0  0  0  0  0  0  0  0
   -1.9491   59.9845   73.2912 H   0  0  0  0  0  0  0  0  0  0  0  0
    0.0567   60.8923   72.1875 H   0  0  0  0  0  0  0  0  0  0  0  0
    2.8470   57.8612   75.8560 H   0  0  0  0  0  0  0  0  0  0  0  0
    3.2288   61.2893   68.3902 H   0  0  0  0  0  0  0  0  0  0  0  0
    2.6770   63.6941   68.7367 H   0  0  0  0  0  0  0  0  0  0  0  0
    2.1264   64.5269   71.0204 H   0  0  0  0  0  0  0  0  0  0  0  0
   -6.0564   60.8745   74.0902 H   0  0  0  0  0  0  0  0  0  0  0  0
   -4.6315   58.8213   74.0900 H   0  0  0  0  0  0  0  0  0  0  0  0
   -3.3546   62.7741   76.8772 H   0  0  0  0  0  0  0  0  0  0  0  0
  2  1  1  0
  3  2  2  0
  4  3  1  0
  5  4  1  0
  6  5  1  0
  6  1  2  0
  7  5  1  0
  8  7  2  0
  9  8  1  0
 10  9  2  0
 11  9  1  0
 11  4  2  0
 12 11  1  0
 13 12  2  0
 14 13  1  0
 15 13  1  0
 16 15  2  0
 17 16  1  0
 18 17  2  0
 18 12  1  0
 19 18  1  0
 20  1  1  0
 22 21  1  0
 23 22  2  0
 24 23  1  0
 25 24  2  0
 25 20  1  0
 26 25  1  0
 27 26  2  0
 27 22  1  0
 28 26  1  0
  2 29  1  0
  3 30  1  0
  7 31  1  0
 15 32  1  0
 16 33  1  0
 17 34  1  0
 23 35  1  0
 24 36  1  0
 27 37  1  0
M  END
>  <score>  (8) 
-8.138

$$$$
=
     RDKit          3D

 37 40  0  0  0  0  0  0  0  0999 V2000
   -0.9790   59.3180   74.7200 C   0  0  0  0  0  0  0  0  0  0  0  0
   -1.1090   60.1030   73.4780 C   0  0  0  0  0  0  0  0  0  0  0  0
    0.0400   60.4550   72.8890 C   0  0  0  0  0  0  0  0  0  0  0  0
    1.3280   60.0790   73.4600 C   0  0  0  0  0  0  0  0  0  0  0  0
    1.2950   59.3410   74.6510 N   0  0  0  0  0  0  0  0  0  0  0  0
    0.1280   58.9610   75.2850 N   0  0  0  0  0  0  0  0  0  0  0  0
    2.5080   58.9790   75.1990 C   0  0  0  0  0  0  0  0  0  0  0  0
    3.6860   59.2420   74.7470 N   0  0  0  0  0  0  0  0  0  0  0  0
    3.7830   59.9650   73.5810 C   0  0  0  0  0  0  0  0  0  0  0  0
    4.8660   60.2590   73.0830 O   0  0  0  0  0  0  0  0  0  0  0  0
    2.5120   60.4100   72.8960 C   0  0  0  0  0  0  0  0  0  0  0  0
    2.6450   61.1840   71.6410 C   0  0  0  0  0  0  0  0  0  0  0  0
    2.4090   62.5710   71.6200 C   0  0  0  0  0  0  0  0  0  0  0  0
    1.9060   63.4320   73.0340 Cl  0  0  0  0  0  0  0  0  0  0  0  0
    2.5560   63.3040   70.4380 C   0  0  0  0  0  0  0  0  0  0  0  0
    2.9430   62.6660   69.2620 C   0  0  0  0  0  0  0  0  0  0  0  0
    3.1810   61.2940   69.2640 C   0  0  0  0  0  0  0  0  0  0  0  0
    3.0360   60.5570   70.4440 C   0  0  0  0  0  0  0  0  0  0  0  0
    3.3320   58.8540   70.3600 Cl  0  0  0  0  0  0  0  0  0  0  0  0
   -2.5160   58.8880   75.4470 S   0  0  0  0  0  0  0  0  0  0  0  0
   -4.7600   64.2700   76.4220 F   0  0  0  0  0  0  0  0  0  0  0  0
   -4.2620   63.0470   76.1970 C   0  0  0  0  0  0  0  0  0  0  0  0
   -3.0590   62.6800   76.7920 C   0  0  0  0  0  0  0  0  0  0  0  0
   -2.5310   61.4070   76.5610 C   0  0  0  0  0  0  0  0  0  0  0  0
   -3.2130   60.5040   75.7360 C   0  0  0  0  0  0  0  0  0  0  0  0
   -4.4180   60.9060   75.1430 C   0  0  0  0  0  0  0  0  0  0  0  0
   -4.9490   62.1700   75.3700 C   0  0  0  0  0  0  0  0  0  0  0  0
   -5.0860   60.0700   74.3310 F   0  0  0  0  0  0  0  0  0  0  0  0
   -2.0885   60.3815   73.0621 H   0  0  0  0  0  0  0  0  0  0  0  0
    0.0123   61.0387   71.9570 H   0  0  0  0  0  0  0  0  0  0  0  0
    2.4648   58.3973   76.1316 H   0  0  0  0  0  0  0  0  0  0  0  0
    2.3654   64.3874   70.4371 H   0  0  0  0  0  0  0  0  0  0  0  0
    3.0604   63.2445   68.3338 H   0  0  0  0  0  0  0  0  0  0  0  0
    3.4838   60.7884   68.3352 H   0  0  0  0  0  0  0  0  0  0  0  0
   -2.5255   63.3893   77.4418 H   0  0  0  0  0  0  0  0  0  0  0  0
   -1.5789   61.1140   77.0276 H   0  0  0  0  0  0  0  0  0  0  0  0
   -5.8981   62.4702   74.9019 H   0  0  0  0  0  0  0  0  0  0  0  0
  2  1  1  0
  3  2  2  0
  4  3  1  0
  5  4  1  0
  6  5  1  0
  6  1  2  0
  7  5  1  0
  8  7  2  0
  9  8  1  0
 10  9  2  0
 11  9  1  0
 11  4  2  0
 12 11  1  0
 13 12  2  0
 14 13  1  0
 15 13  1  0
 16 15  2  0
 17 16  1  0
 18 17  2  0
 18 12  1  0
 19 18  1  0
 20  1  1  0
 22 21  1  0
 23 22  2  0
 24 23  1  0
 25 24  2  0
 25 20  1  0
 26 25  1  0
 27 26  2  0
 27 22  1  0
 28 26  1  0
  2 29  1  0
  3 30  1  0
  7 31  1  0
 15 32  1  0
 16 33  1  0
 17 34  1  0
 23 35  1  0
 24 36  1  0
 27 37  1  0
M  END
>  <score>  (9) 
-7.939

$$$$
