=
     RDKit          3D

 46 49  0  0  0  0  0  0  0  0999 V2000
    0.9930   66.0580   69.8550 C   0  0  0  0  0  0  0  0  0  0  0  0
    0.0990   66.0770   70.9220 C   0  0  0  0  0  0  0  0  0  0  0  0
    0.0410   64.9840   71.7910 C   0  0  0  0  0  0  0  0  0  0  0  0
    0.8510   63.8690   71.6320 C   0  0  0  0  0  0  0  0  0  0  0  0
    1.7680   63.8280   70.5630 C   0  0  0  0  0  0  0  0  0  0  0  0
    1.8320   64.9470   69.6920 C   0  0  0  0  0  0  0  0  0  0  0  0
    2.5750   62.6630   70.4320 C   0  0  0  0  0  0  0  0  0  0  0  0
    3.5480   62.5860   69.4090 N   0  0  0  0  0  0  0  0  0  0  0  0
    4.1610   61.2890   69.1620 C   0  0  0  0  0  0  0  0  0  0  0  0
    4.6100   60.6760   70.4740 C   0  0  0  0  0  0  0  0  0  0  0  0
    3.3910   60.4480   71.3560 C   0  0  0  0  0  0  0  0  0  0  0  0
    2.4900   61.6570   71.4140 C   0  0  0  0  0  0  0  0  0  0  0  0
    1.5260   61.7950   72.4190 C   0  0  0  0  0  0  0  0  0  0  0  0
    0.7240   62.8810   72.5230 N   0  0  0  0  0  0  0  0  0  0  0  0
    1.2880   60.7910   73.4680 C   0  0  0  0  0  0  0  0  0  0  0  0
    0.3960   59.7280   73.2440 C   0  0  0  0  0  0  0  0  0  0  0  0
    0.1620   58.7650   74.2310 C   0  0  0  0  0  0  0  0  0  0  0  0
    0.8260   58.8520   75.4510 C   0  0  0  0  0  0  0  0  0  0  0  0
    1.7260   59.8880   75.6900 C   0  0  0  0  0  0  0  0  0  0  0  0
    1.9570   60.8500   74.7020 C   0  0  0  0  0  0  0  0  0  0  0  0
    0.5410   57.6700   76.6670 Cl  0  0  0  0  0  0  0  0  0  0  0  0
    1.8910   68.2560   69.2890 N   0  0  0  0  0  0  0  0  0  0  0  0
    1.1130   67.1880   68.8920 C   0  0  0  0  0  0  0  0  0  0  0  0
    0.5080   67.1530   67.8270 O   0  0  0  0  0  0  0  0  0  0  0  0
    3.2740   70.2240   68.7890 C   0  0  0  0  0  0  0  0  0  0  0  0
    2.0090   69.4470   68.4720 C   0  0  0  0  0  0  0  0  0  0  0  0
   -0.5569   66.9458   71.0799 H   0  0  0  0  0  0  0  0  0  0  0  0
   -0.6709   65.0086   72.6292 H   0  0  0  0  0  0  0  0  0  0  0  0
    2.5595   64.9422   68.8670 H   0  0  0  0  0  0  0  0  0  0  0  0
    3.8129   63.4159   68.8595 H   0  0  0  0  0  0  0  0  0  0  0  0
    3.4287   60.6246   68.6800 H   0  0  0  0  0  0  0  0  0  0  0  0
    5.0329   61.4183   68.5039 H   0  0  0  0  0  0  0  0  0  0  0  0
    5.1102   59.7156   70.2805 H   0  0  0  0  0  0  0  0  0  0  0  0
    5.3137   61.3536   70.9797 H   0  0  0  0  0  0  0  0  0  0  0  0
    2.8181   59.5991   70.9545 H   0  0  0  0  0  0  0  0  0  0  0  0
    3.7480   60.2460   72.3766 H   0  0  0  0  0  0  0  0  0  0  0  0
   -0.1256   59.6524   72.2785 H   0  0  0  0  0  0  0  0  0  0  0  0
   -0.5439   57.9424   74.0438 H   0  0  0  0  0  0  0  0  0  0  0  0
    2.2535   59.9491   76.6533 H   0  0  0  0  0  0  0  0  0  0  0  0
    2.6720   61.6638   74.8934 H   0  0  0  0  0  0  0  0  0  0  0  0
    2.3981   68.2058   70.1841 H   0  0  0  0  0  0  0  0  0  0  0  0
    3.3950   70.2983   69.8798 H   0  0  0  0  0  0  0  0  0  0  0  0
    4.1419   69.7030   68.3585 H   0  0  0  0  0  0  0  0  0  0  0  0
    3.2017   71.2337   68.3585 H   0  0  0  0  0  0  0  0  0  0  0  0
    1.1383   70.0933   68.6566 H   0  0  0  0  0  0  0  0  0  0  0  0
    2.0535   69.1359   67.4178 H   0  0  0  0  0  0  0  0  0  0  0  0
  2  1  2  0
  3  2  1  0
  4  3  2  0
  5  4  1  0
  6  5  2  0
  6  1  1  0
  7  5  1  0
  8  7  1  0
  9  8  1  0
 10  9  1  0
 11 10  1  0
 12  7  2  0
 12 11  1  0
 13 12  1  0
 14 13  2  0
 14  4  1  0
 15 13  1  0
 16 15  2  0
 17 16  1  0
 18 17  2  0
 19 18  1  0
 20 19  2  0
 20 15  1  0
 21 18  1  0
 23 22  1  0
 23  1  1  0
 24 23  2  0
 26 25  1  0
 26 22  1  0
  2 27  1  0
  3 28  1  0
  6 29  1  0
  8 30  1  0
  9 31  1  0
  9 32  1  0
 10 33  1  0
 10 34  1  0
 11 35  1  0
 11 36  1  0
 16 37  1  0
 17 38  1  0
 19 39  1  0
 20 40  1  0
 22 41  1  0
 25 42  1  0
 25 43  1  0
 25 44  1  0
 26 45  1  0
 26 46  1  0
M  END
>  <score>  (1) 
-8.68

$$$$
=
     RDKit          3D

 46 49  0  0  0  0  0  0  0  0999 V2000
    0.8970   65.6630   70.3090 C   0  0  0  0  0  0  0  0  0  0  0  0
    0.0640   65.5870   71.4220 C   0  0  0  0  0  0  0  0  0  0  0  0
    0.0920   64.4440   72.2260 C   0  0  0  0  0  0  0  0  0  0  0  0
    0.9310   63.3710   71.9570 C   0  0  0  0  0  0  0  0  0  0  0  0
    1.7870   63.4270   70.8390 C   0  0  0  0  0  0  0  0  0  0  0  0
    1.7630   64.5960   70.0340 C   0  0  0  0  0  0  0  0  0  0  0  0
    2.6240   62.3030   70.5950 C   0  0  0  0  0  0  0  0  0  0  0  0
    3.5400   62.3220   69.5180 N   0  0  0  0  0  0  0  0  0  0  0  0
    4.1820   61.0650   69.1610 C   0  0  0  0  0  0  0  0  0  0  0  0
    4.7260   60.3950   70.4070 C   0  0  0  0  0  0  0  0  0  0  0  0
    3.5680   60.0700   71.3390 C   0  0  0  0  0  0  0  0  0  0  0  0
    2.6300   61.2390   71.5180 C   0  0  0  0  0  0  0  0  0  0  0  0
    1.7200   61.2820   72.5800 C   0  0  0  0  0  0  0  0  0  0  0  0
    0.8890   62.3300   72.7930 N   0  0  0  0  0  0  0  0  0  0  0  0
    1.5760   60.2110   73.5790 C   0  0  0  0  0  0  0  0  0  0  0  0
    0.6280   59.1890   73.3930 C   0  0  0  0  0  0  0  0  0  0  0  0
    0.4830   58.1640   74.3320 C   0  0  0  0  0  0  0  0  0  0  0  0
    1.2920   58.1450   75.4650 C   0  0  0  0  0  0  0  0  0  0  0  0
    2.2480   59.1380   75.6630 C   0  0  0  0  0  0  0  0  0  0  0  0
    2.3910   60.1630   74.7220 C   0  0  0  0  0  0  0  0  0  0  0  0
    1.1150   56.8850   76.6220 Cl  0  0  0  0  0  0  0  0  0  0  0  0
    0.0020   66.8670   68.3830 N   0  0  0  0  0  0  0  0  0  0  0  0
    0.9230   66.8510   69.4100 C   0  0  0  0  0  0  0  0  0  0  0  0
    1.7580   67.7310   69.5820 O   0  0  0  0  0  0  0  0  0  0  0  0
   -1.3890   68.1330   66.8030 C   0  0  0  0  0  0  0  0  0  0  0  0
   -0.0070   67.9280   67.3970 C   0  0  0  0  0  0  0  0  0  0  0  0
   -0.6111   66.4202   71.6668 H   0  0  0  0  0  0  0  0  0  0  0  0
   -0.5728   64.3929   73.1009 H   0  0  0  0  0  0  0  0  0  0  0  0
    2.4421   64.6662   69.1715 H   0  0  0  0  0  0  0  0  0  0  0  0
    3.7452   63.1917   69.0057 H   0  0  0  0  0  0  0  0  0  0  0  0
    3.4464   60.4024   68.6815 H   0  0  0  0  0  0  0  0  0  0  0  0
    5.0099   61.2646   68.4648 H   0  0  0  0  0  0  0  0  0  0  0  0
    5.2477   59.4673   70.1292 H   0  0  0  0  0  0  0  0  0  0  0  0
    5.4332   61.0686   70.9131 H   0  0  0  0  0  0  0  0  0  0  0  0
    3.0031   59.2245   70.9195 H   0  0  0  0  0  0  0  0  0  0  0  0
    3.9891   59.8230   72.3247 H   0  0  0  0  0  0  0  0  0  0  0  0
   -0.0084   59.1964   72.4958 H   0  0  0  0  0  0  0  0  0  0  0  0
   -0.2676   57.3751   74.1765 H   0  0  0  0  0  0  0  0  0  0  0  0
    2.8888   59.1164   76.5568 H   0  0  0  0  0  0  0  0  0  0  0  0
    3.1518   60.9418   74.8792 H   0  0  0  0  0  0  0  0  0  0  0  0
   -0.6928   66.1096   68.3161 H   0  0  0  0  0  0  0  0  0  0  0  0
   -2.1242   68.2421   67.6139 H   0  0  0  0  0  0  0  0  0  0  0  0
   -1.3903   69.0412   66.1823 H   0  0  0  0  0  0  0  0  0  0  0  0
   -1.6539   67.2643   66.1823 H   0  0  0  0  0  0  0  0  0  0  0  0
    0.6932   67.6693   66.5890 H   0  0  0  0  0  0  0  0  0  0  0  0
    0.2929   68.8613   67.8959 H   0  0  0  0  0  0  0  0  0  0  0  0
  2  1  2  0
  3  2  1  0
  4  3  2  0
  5  4  1  0
  6  5  2  0
  6  1  1  0
  7  5  1  0
  8  7  1  0
  9  8  1  0
 10  9  1  0
 11 10  1  0
 12  7  2  0
 12 11  1  0
 13 12  1  0
 14 13  2  0
 14  4  1  0
 15 13  1  0
 16 15  2  0
 17 16  1  0
 18 17  2  0
 19 18  1  0
 20 19  2  0
 20 15  1  0
 21 18  1  0
 23 22  1  0
 23  1  1  0
 24 23  2  0
 26 25  1  0
 26 22  1  0
  2 27  1  0
  3 28  1  0
  6 29  1  0
  8 30  1  0
  9 31  1  0
  9 32  1  0
 10 33  1  0
 10 34  1  0
 11 35  1  0
 11 36  1  0
 16 37  1  0
 17 38  1  0
 19 39  1  0
 20 40  1  0
 22 41  1  0
 25 42  1  0
 25 43  1  0
 25 44  1  0
 26 45  1  0
 26 46  1  0
M  END
>  <score>  (2) 
-8.651

$$$$
=
     RDKit          3D

 46 49  0  0  0  0  0  0  0  0999 V2000
    1.6730   62.6330   71.0860 C   0  0  0  0  0  0  0  0  0  0  0  0
    2.6650   61.6730   70.9070 C   0  0  0  0  0  0  0  0  0  0  0  0
    2.5480   60.4350   71.5440 C   0  0  0  0  0  0  0  0  0  0  0  0
    1.4660   60.1200   72.3550 C   0  0  0  0  0  0  0  0  0  0  0  0
    0.4470   61.0740   72.5470 C   0  0  0  0  0  0  0  0  0  0  0  0
    0.5650   62.3240   71.8860 C   0  0  0  0  0  0  0  0  0  0  0  0
   -0.6400   60.7130   73.3930 C   0  0  0  0  0  0  0  0  0  0  0  0
   -1.7180   61.6090   73.5820 N   0  0  0  0  0  0  0  0  0  0  0  0
   -2.6660   61.3020   74.6430 C   0  0  0  0  0  0  0  0  0  0  0  0
   -3.0950   59.8520   74.5440 C   0  0  0  0  0  0  0  0  0  0  0  0
   -1.8770   58.9610   74.7450 C   0  0  0  0  0  0  0  0  0  0  0  0
   -0.6960   59.4070   73.9170 C   0  0  0  0  0  0  0  0  0  0  0  0
    0.3850   58.5530   73.6770 C   0  0  0  0  0  0  0  0  0  0  0  0
    1.4440   58.9050   72.9100 N   0  0  0  0  0  0  0  0  0  0  0  0
    0.4840   57.1870   74.2180 C   0  0  0  0  0  0  0  0  0  0  0  0
   -0.1510   56.1170   73.5640 C   0  0  0  0  0  0  0  0  0  0  0  0
   -0.0630   54.8150   74.0650 C   0  0  0  0  0  0  0  0  0  0  0  0
    0.6710   54.5680   75.2220 C   0  0  0  0  0  0  0  0  0  0  0  0
    1.3220   55.6100   75.8780 C   0  0  0  0  0  0  0  0  0  0  0  0
    1.2310   56.9120   75.3750 C   0  0  0  0  0  0  0  0  0  0  0  0
    0.7810   52.9670   75.8410 Cl  0  0  0  0  0  0  0  0  0  0  0  0
    0.8420   64.9210   70.9000 N   0  0  0  0  0  0  0  0  0  0  0  0
    1.7290   63.9720   70.4350 C   0  0  0  0  0  0  0  0  0  0  0  0
    2.5110   64.1730   69.5130 O   0  0  0  0  0  0  0  0  0  0  0  0
   -0.3700   66.2900   69.2590 C   0  0  0  0  0  0  0  0  0  0  0  0
    0.7480   66.2290   70.2840 C   0  0  0  0  0  0  0  0  0  0  0  0
    3.5348   61.8875   70.2686 H   0  0  0  0  0  0  0  0  0  0  0  0
    3.3394   59.6850   71.3981 H   0  0  0  0  0  0  0  0  0  0  0  0
   -0.2345   63.0701   72.0048 H   0  0  0  0  0  0  0  0  0  0  0  0
   -1.8279   62.4460   72.9919 H   0  0  0  0  0  0  0  0  0  0  0  0
   -2.1904   61.4763   75.6194 H   0  0  0  0  0  0  0  0  0  0  0  0
   -3.5489   61.9499   74.5400 H   0  0  0  0  0  0  0  0  0  0  0  0
   -3.8433   59.6348   75.3205 H   0  0  0  0  0  0  0  0  0  0  0  0
   -3.5363   59.6613   73.5546 H   0  0  0  0  0  0  0  0  0  0  0  0
   -1.5930   58.9850   75.8074 H   0  0  0  0  0  0  0  0  0  0  0  0
   -2.1478   57.9445   74.4235 H   0  0  0  0  0  0  0  0  0  0  0  0
   -0.7252   56.3069   72.6452 H   0  0  0  0  0  0  0  0  0  0  0  0
   -0.5718   53.9886   73.5471 H   0  0  0  0  0  0  0  0  0  0  0  0
    1.9057   55.4097   76.7886 H   0  0  0  0  0  0  0  0  0  0  0  0
    1.7514   57.7314   75.8925 H   0  0  0  0  0  0  0  0  0  0  0  0
    0.2348   64.6952   71.7007 H   0  0  0  0  0  0  0  0  0  0  0  0
   -1.3393   66.3429   69.7764 H   0  0  0  0  0  0  0  0  0  0  0  0
   -0.2415   67.1825   68.6289 H   0  0  0  0  0  0  0  0  0  0  0  0
   -0.3394   65.3888   68.6289 H   0  0  0  0  0  0  0  0  0  0  0  0
    1.7014   66.4570   69.7850 H   0  0  0  0  0  0  0  0  0  0  0  0
    0.5292   66.9637   71.0729 H   0  0  0  0  0  0  0  0  0  0  0  0
  2  1  2  0
  3  2  1  0
  4  3  2  0
  5  4  1  0
  6  5  2  0
  6  1  1  0
  7  5  1  0
  8  7  1  0
  9  8  1  0
 10  9  1  0
 11 10  1  0
 12  7  2  0
 12 11  1  0
 13 12  1  0
 14 13  2  0
 14  4  1  0
 15 13  1  0
 16 15  2  0
 17 16  1  0
 18 17  2  0
 19 18  1  0
 20 19  2  0
 20 15  1  0
 21 18  1  0
 23 22  1  0
 23  1  1  0
 24 23  2  0
 26 25  1  0
 26 22  1  0
  2 27  1  0
  3 28  1  0
  6 29  1  0
  8 30  1  0
  9 31  1  0
  9 32  1  0
 10 33  1  0
 10 34  1  0
 11 35  1  0
 11 36  1  0
 16 37  1  0
 17 38  1  0
 19 39  1  0
 20 40  1  0
 22 41  1  0
 25 42  1  0
 25 43  1  0
 25 44  1  0
 26 45  1  0
 26 46  1  0
M  END
>  <score>  (3) 
-8.635

$$$$
=
     RDKit          3D

 46 49  0  0  0  0  0  0  0  0999 V2000
    0.6480   63.4550   71.6430 C   0  0  0  0  0  0  0  0  0  0  0  0
    1.7550   62.6880   71.2890 C   0  0  0  0  0  0  0  0  0  0  0  0
    1.8470   61.3670   71.7340 C   0  0  0  0  0  0  0  0  0  0  0  0
    0.8660   60.7820   72.5240 C   0  0  0  0  0  0  0  0  0  0  0  0
   -0.2660   61.5370   72.8910 C   0  0  0  0  0  0  0  0  0  0  0  0
   -0.3600   62.8740   72.4230 C   0  0  0  0  0  0  0  0  0  0  0  0
   -1.2430   60.9020   73.7070 C   0  0  0  0  0  0  0  0  0  0  0  0
   -2.4240   61.5930   74.0650 N   0  0  0  0  0  0  0  0  0  0  0  0
   -3.2610   60.9980   75.0970 C   0  0  0  0  0  0  0  0  0  0  0  0
   -3.4860   59.5310   74.7940 C   0  0  0  0  0  0  0  0  0  0  0  0
   -2.1460   58.8100   74.8190 C   0  0  0  0  0  0  0  0  0  0  0  0
   -1.0860   59.5400   74.0290 C   0  0  0  0  0  0  0  0  0  0  0  0
    0.0900   58.8980   73.6280 C   0  0  0  0  0  0  0  0  0  0  0  0
    1.0450   59.5100   72.8890 N   0  0  0  0  0  0  0  0  0  0  0  0
    0.4100   57.4980   73.9520 C   0  0  0  0  0  0  0  0  0  0  0  0
    1.5530   57.1880   74.7090 C   0  0  0  0  0  0  0  0  0  0  0  0
    1.8680   55.8630   75.0260 C   0  0  0  0  0  0  0  0  0  0  0  0
    1.0350   54.8340   74.5960 C   0  0  0  0  0  0  0  0  0  0  0  0
   -0.1120   55.1180   73.8580 C   0  0  0  0  0  0  0  0  0  0  0  0
   -0.4230   56.4440   73.5410 C   0  0  0  0  0  0  0  0  0  0  0  0
    1.4190   53.2030   74.9850 Cl  0  0  0  0  0  0  0  0  0  0  0  0
    1.1530   65.2400   70.0550 N   0  0  0  0  0  0  0  0  0  0  0  0
    0.4800   64.8680   71.2010 C   0  0  0  0  0  0  0  0  0  0  0  0
   -0.1990   65.6420   71.8660 O   0  0  0  0  0  0  0  0  0  0  0  0
   -0.0410   66.8660   68.6540 C   0  0  0  0  0  0  0  0  0  0  0  0
    1.1340   66.6080   69.5800 C   0  0  0  0  0  0  0  0  0  0  0  0
    2.5509   63.1190   70.6638 H   0  0  0  0  0  0  0  0  0  0  0  0
    2.7260   60.7701   71.4491 H   0  0  0  0  0  0  0  0  0  0  0  0
   -1.2483   63.4697   72.6798 H   0  0  0  0  0  0  0  0  0  0  0  0
   -2.6817   62.4821   73.6134 H   0  0  0  0  0  0  0  0  0  0  0  0
   -2.7630   61.0970   76.0728 H   0  0  0  0  0  0  0  0  0  0  0  0
   -4.2309   61.5164   75.1210 H   0  0  0  0  0  0  0  0  0  0  0  0
   -4.1535   59.0957   75.5523 H   0  0  0  0  0  0  0  0  0  0  0  0
   -3.9485   59.4226   73.8019 H   0  0  0  0  0  0  0  0  0  0  0  0
   -1.8111   58.7224   75.8631 H   0  0  0  0  0  0  0  0  0  0  0  0
   -2.2877   57.8216   74.3576 H   0  0  0  0  0  0  0  0  0  0  0  0
    2.2092   57.9994   75.0571 H   0  0  0  0  0  0  0  0  0  0  0  0
    2.7701   55.6348   75.6126 H   0  0  0  0  0  0  0  0  0  0  0  0
   -0.7707   54.3020   73.5258 H   0  0  0  0  0  0  0  0  0  0  0  0
   -1.3320   56.6647   72.9621 H   0  0  0  0  0  0  0  0  0  0  0  0
    1.6797   64.5299   69.5265 H   0  0  0  0  0  0  0  0  0  0  0  0
   -0.9427   67.0640   69.2522 H   0  0  0  0  0  0  0  0  0  0  0  0
    0.1768   67.7377   68.0194 H   0  0  0  0  0  0  0  0  0  0  0  0
   -0.2085   65.9832   68.0194 H   0  0  0  0  0  0  0  0  0  0  0  0
    2.0680   66.8088   69.0348 H   0  0  0  0  0  0  0  0  0  0  0  0
    1.0351   67.2717   70.4516 H   0  0  0  0  0  0  0  0  0  0  0  0
  2  1  2  0
  3  2  1  0
  4  3  2  0
  5  4  1  0
  6  5  2  0
  6  1  1  0
  7  5  1  0
  8  7  1  0
  9  8  1  0
 10  9  1  0
 11 10  1  0
 12  7  2  0
 12 11  1  0
 13 12  1  0
 14 13  2  0
 14  4  1  0
 15 13  1  0
 16 15  2  0
 17 16  1  0
 18 17  2  0
 19 18  1  0
 20 19  2  0
 20 15  1  0
 21 18  1  0
 23 22  1  0
 23  1  1  0
 24 23  2  0
 26 25  1  0
 26 22  1  0
  2 27  1  0
  3 28  1  0
  6 29  1  0
  8 30  1  0
  9 31  1  0
  9 32  1  0
 10 33  1  0
 10 34  1  0
 11 35  1  0
 11 36  1  0
 16 37  1  0
 17 38  1  0
 19 39  1  0
 20 40  1  0
 22 41  1  0
 25 42  1  0
 25 43  1  0
 25 44  1  0
 26 45  1  0
 26 46  1  0
M  END
>  <score>  (4) 
-8.496

$$$$
=
     RDKit          3D

 46 49  0  0  0  0  0  0  0  0999 V2000
    0.0020   55.2410   74.4670 C   0  0  0  0  0  0  0  0  0  0  0  0
    1.2890   55.0650   73.9640 C   0  0  0  0  0  0  0  0  0  0  0  0
    1.9710   56.1570   73.4210 C   0  0  0  0  0  0  0  0  0  0  0  0
    1.4110   57.4260   73.3660 C   0  0  0  0  0  0  0  0  0  0  0  0
    0.1120   57.6300   73.8740 C   0  0  0  0  0  0  0  0  0  0  0  0
   -0.5700   56.5190   74.4360 C   0  0  0  0  0  0  0  0  0  0  0  0
   -0.4280   58.9440   73.7910 C   0  0  0  0  0  0  0  0  0  0  0  0
   -1.7060   59.2200   74.3290 N   0  0  0  0  0  0  0  0  0  0  0  0
   -2.3110   60.5010   73.9950 C   0  0  0  0  0  0  0  0  0  0  0  0
   -1.3080   61.6160   74.2140 C   0  0  0  0  0  0  0  0  0  0  0  0
   -0.1260   61.4090   73.2770 C   0  0  0  0  0  0  0  0  0  0  0  0
    0.3810   59.9870   73.2980 C   0  0  0  0  0  0  0  0  0  0  0  0
    1.6480   59.6620   72.8010 C   0  0  0  0  0  0  0  0  0  0  0  0
    2.1500   58.4050   72.8370 N   0  0  0  0  0  0  0  0  0  0  0  0
    2.5680   60.6410   72.2020 C   0  0  0  0  0  0  0  0  0  0  0  0
    3.7950   60.9350   72.8210 C   0  0  0  0  0  0  0  0  0  0  0  0
    4.6800   61.8610   72.2620 C   0  0  0  0  0  0  0  0  0  0  0  0
    4.3490   62.4990   71.0690 C   0  0  0  0  0  0  0  0  0  0  0  0
    3.1450   62.2130   70.4290 C   0  0  0  0  0  0  0  0  0  0  0  0
    2.2610   61.2860   70.9920 C   0  0  0  0  0  0  0  0  0  0  0  0
    5.4350   63.6390   70.3780 Cl  0  0  0  0  0  0  0  0  0  0  0  0
   -2.1520   54.2840   75.1020 N   0  0  0  0  0  0  0  0  0  0  0  0
   -0.7820   54.1230   75.0630 C   0  0  0  0  0  0  0  0  0  0  0  0
   -0.2050   53.1440   75.5200 O   0  0  0  0  0  0  0  0  0  0  0  0
   -3.3370   53.6850   77.1690 C   0  0  0  0  0  0  0  0  0  0  0  0
   -3.0080   53.3030   75.7370 C   0  0  0  0  0  0  0  0  0  0  0  0
    1.7649   54.0737   73.9940 H   0  0  0  0  0  0  0  0  0  0  0  0
    2.9856   56.0060   73.0238 H   0  0  0  0  0  0  0  0  0  0  0  0
   -1.5749   56.6659   74.8586 H   0  0  0  0  0  0  0  0  0  0  0  0
   -2.1900   58.5411   74.9337 H   0  0  0  0  0  0  0  0  0  0  0  0
   -2.6236   60.4932   72.9404 H   0  0  0  0  0  0  0  0  0  0  0  0
   -3.1861   60.6682   74.6401 H   0  0  0  0  0  0  0  0  0  0  0  0
   -1.7819   62.5857   74.0015 H   0  0  0  0  0  0  0  0  0  0  0  0
   -0.9616   61.6052   75.2580 H   0  0  0  0  0  0  0  0  0  0  0  0
   -0.4394   61.6575   72.2523 H   0  0  0  0  0  0  0  0  0  0  0  0
    0.6910   62.0622   73.6173 H   0  0  0  0  0  0  0  0  0  0  0  0
    4.0629   60.4285   73.7600 H   0  0  0  0  0  0  0  0  0  0  0  0
    5.6338   62.0850   72.7620 H   0  0  0  0  0  0  0  0  0  0  0  0
    2.8901   62.7145   69.4838 H   0  0  0  0  0  0  0  0  0  0  0  0
    1.3137   61.0593   70.4809 H   0  0  0  0  0  0  0  0  0  0  0  0
   -2.5744   55.1186   74.6709 H   0  0  0  0  0  0  0  0  0  0  0  0
   -2.7781   53.0360   77.8593 H   0  0  0  0  0  0  0  0  0  0  0  0
   -3.0551   54.7340   77.3427 H   0  0  0  0  0  0  0  0  0  0  0  0
   -4.4162   53.5618   77.3427 H   0  0  0  0  0  0  0  0  0  0  0  0
   -2.4954   52.3298   75.7369 H   0  0  0  0  0  0  0  0  0  0  0  0
   -3.9500   53.2536   75.1711 H   0  0  0  0  0  0  0  0  0  0  0  0
  2  1  2  0
  3  2  1  0
  4  3  2  0
  5  4  1  0
  6  5  2  0
  6  1  1  0
  7  5  1  0
  8  7  1  0
  9  8  1  0
 10  9  1  0
 11 10  1  0
 12  7  2  0
 12 11  1  0
 13 12  1  0
 14 13  2  0
 14  4  1  0
 15 13  1  0
 16 15  2  0
 17 16  1  0
 18 17  2  0
 19 18  1  0
 20 19  2  0
 20 15  1  0
 21 18  1  0
 23 22  1  0
 23  1  1  0
 24 23  2  0
 26 25  1  0
 26 22  1  0
  2 27  1  0
  3 28  1  0
  6 29  1  0
  8 30  1  0
  9 31  1  0
  9 32  1  0
 10 33  1  0
 10 34  1  0
 11 35  1  0
 11 36  1  0
 16 37  1  0
 17 38  1  0
 19 39  1  0
 20 40  1  0
 22 41  1  0
 25 42  1  0
 25 43  1  0
 25 44  1  0
 26 45  1  0
 26 46  1  0
M  END
>  <score>  (5) 
-8.093

$$$$
=
     RDKit          3D

 46 49  0  0  0  0  0  0  0  0999 V2000
    1.2000   65.0970   70.2650 C   0  0  0  0  0  0  0  0  0  0  0  0
    1.8970   64.0670   69.6390 C   0  0  0  0  0  0  0  0  0  0  0  0
    2.0790   62.8540   70.3080 C   0  0  0  0  0  0  0  0  0  0  0  0
    1.5840   62.6320   71.5860 C   0  0  0  0  0  0  0  0  0  0  0  0
    0.8720   63.6580   72.2380 C   0  0  0  0  0  0  0  0  0  0  0  0
    0.6780   64.8830   71.5470 C   0  0  0  0  0  0  0  0  0  0  0  0
    0.3890   63.3920   73.5500 C   0  0  0  0  0  0  0  0  0  0  0  0
   -0.3770   64.3650   74.2340 N   0  0  0  0  0  0  0  0  0  0  0  0
   -0.6250   64.1470   75.6520 C   0  0  0  0  0  0  0  0  0  0  0  0
   -1.1090   62.7280   75.8760 C   0  0  0  0  0  0  0  0  0  0  0  0
   -0.0150   61.7600   75.4480 C   0  0  0  0  0  0  0  0  0  0  0  0
    0.5600   62.1050   74.0950 C   0  0  0  0  0  0  0  0  0  0  0  0
    1.3040   61.1720   73.3650 C   0  0  0  0  0  0  0  0  0  0  0  0
    1.8050   61.4340   72.1340 N   0  0  0  0  0  0  0  0  0  0  0  0
    1.6120   59.8150   73.8440 C   0  0  0  0  0  0  0  0  0  0  0  0
    0.7430   58.7470   73.5600 C   0  0  0  0  0  0  0  0  0  0  0  0
    1.0240   57.4530   74.0070 C   0  0  0  0  0  0  0  0  0  0  0  0
    2.1850   57.2110   74.7360 C   0  0  0  0  0  0  0  0  0  0  0  0
    3.0690   58.2500   75.0160 C   0  0  0  0  0  0  0  0  0  0  0  0
    2.7850   59.5440   74.5680 C   0  0  0  0  0  0  0  0  0  0  0  0
    2.5340   55.6200   75.2870 Cl  0  0  0  0  0  0  0  0  0  0  0  0
   -0.0370   66.4610   68.6620 N   0  0  0  0  0  0  0  0  0  0  0  0
    0.9630   66.4150   69.6110 C   0  0  0  0  0  0  0  0  0  0  0  0
    1.6650   67.3770   69.9000 O   0  0  0  0  0  0  0  0  0  0  0  0
   -1.6710   67.6390   67.2560 C   0  0  0  0  0  0  0  0  0  0  0  0
   -0.2970   67.6650   67.9000 C   0  0  0  0  0  0  0  0  0  0  0  0
    2.3012   64.2072   68.6256 H   0  0  0  0  0  0  0  0  0  0  0  0
    2.6332   62.0477   69.8052 H   0  0  0  0  0  0  0  0  0  0  0  0
    0.1024   65.6855   72.0314 H   0  0  0  0  0  0  0  0  0  0  0  0
   -0.7449   65.1952   73.7478 H   0  0  0  0  0  0  0  0  0  0  0  0
    0.3063   64.3084   76.2147 H   0  0  0  0  0  0  0  0  0  0  0  0
   -1.3944   64.8524   75.9990 H   0  0  0  0  0  0  0  0  0  0  0  0
   -1.3369   62.5796   76.9418 H   0  0  0  0  0  0  0  0  0  0  0  0
   -2.0187   62.5470   75.2847 H   0  0  0  0  0  0  0  0  0  0  0  0
    0.7935   61.7883   76.1933 H   0  0  0  0  0  0  0  0  0  0  0  0
   -0.4622   60.7575   75.3773 H   0  0  0  0  0  0  0  0  0  0  0  0
   -0.1715   58.9325   72.9775 H   0  0  0  0  0  0  0  0  0  0  0  0
    0.3305   56.6289   73.7836 H   0  0  0  0  0  0  0  0  0  0  0  0
    3.9879   58.0535   75.5878 H   0  0  0  0  0  0  0  0  0  0  0  0
    3.4894   60.3604   74.7854 H   0  0  0  0  0  0  0  0  0  0  0  0
   -0.6103   65.6224   68.4919 H   0  0  0  0  0  0  0  0  0  0  0  0
   -2.4430   67.6244   68.0395 H   0  0  0  0  0  0  0  0  0  0  0  0
   -1.8000   68.5349   66.6309 H   0  0  0  0  0  0  0  0  0  0  0  0
   -1.7660   66.7389   66.6309 H   0  0  0  0  0  0  0  0  0  0  0  0
    0.4641   67.7585   67.1113 H   0  0  0  0  0  0  0  0  0  0  0  0
   -0.2590   68.5210   68.5898 H   0  0  0  0  0  0  0  0  0  0  0  0
  2  1  2  0
  3  2  1  0
  4  3  2  0
  5  4  1  0
  6  5  2  0
  6  1  1  0
  7  5  1  0
  8  7  1  0
  9  8  1  0
 10  9  1  0
 11 10  1  0
 12  7  2  0
 12 11  1  0
 13 12  1  0
 14 13  2  0
 14  4  1  0
 15 13  1  0
 16 15  2  0
 17 16  1  0
 18 17  2  0
 19 18  1  0
 20 19  2  0
 20 15  1  0
 21 18  1  0
 23 22  1  0
 23  1  1  0
 24 23  2  0
 26 25  1  0
 26 22  1  0
  2 27  1  0
  3 28  1  0
  6 29  1  0
  8 30  1  0
  9 31  1  0
  9 32  1  0
 10 33  1  0
 10 34  1  0
 11 35  1  0
 11 36  1  0
 16 37  1  0
 17 38  1  0
 19 39  1  0
 20 40  1  0
 22 41  1  0
 25 42  1  0
 25 43  1  0
 25 44  1  0
 26 45  1  0
 26 46  1  0
M  END
>  <score>  (6) 
-7.662

$$$$
=
     RDKit          3D

 46 49  0  0  0  0  0  0  0  0999 V2000
    0.6210   55.5340   74.4160 C   0  0  0  0  0  0  0  0  0  0  0  0
    1.7720   55.8420   73.6950 C   0  0  0  0  0  0  0  0  0  0  0  0
    1.9190   57.1200   73.1480 C   0  0  0  0  0  0  0  0  0  0  0  0
    0.9530   58.1050   73.2980 C   0  0  0  0  0  0  0  0  0  0  0  0
   -0.2180   57.8180   74.0270 C   0  0  0  0  0  0  0  0  0  0  0  0
   -0.3560   56.5230   74.5930 C   0  0  0  0  0  0  0  0  0  0  0  0
   -1.1870   58.8530   74.1510 C   0  0  0  0  0  0  0  0  0  0  0  0
   -2.3580   58.6410   74.9130 N   0  0  0  0  0  0  0  0  0  0  0  0
   -3.4220   59.6280   74.7980 C   0  0  0  0  0  0  0  0  0  0  0  0
   -2.8460   61.0220   74.9480 C   0  0  0  0  0  0  0  0  0  0  0  0
   -1.8610   61.2750   73.8160 C   0  0  0  0  0  0  0  0  0  0  0  0
   -0.8960   60.1290   73.6270 C   0  0  0  0  0  0  0  0  0  0  0  0
    0.2890   60.2910   72.9030 C   0  0  0  0  0  0  0  0  0  0  0  0
    1.1950   59.2960   72.7440 N   0  0  0  0  0  0  0  0  0  0  0  0
    0.6840   61.5490   72.2500 C   0  0  0  0  0  0  0  0  0  0  0  0
   -0.2640   62.5640   72.0330 C   0  0  0  0  0  0  0  0  0  0  0  0
    0.0980   63.7660   71.4170 C   0  0  0  0  0  0  0  0  0  0  0  0
    1.4170   63.9680   71.0180 C   0  0  0  0  0  0  0  0  0  0  0  0
    2.3770   62.9830   71.2370 C   0  0  0  0  0  0  0  0  0  0  0  0
    2.0120   61.7810   71.8530 C   0  0  0  0  0  0  0  0  0  0  0  0
    1.8650   65.4450   70.2600 Cl  0  0  0  0  0  0  0  0  0  0  0  0
   -0.7070   54.0690   75.8480 N   0  0  0  0  0  0  0  0  0  0  0  0
    0.3980   54.1950   75.0310 C   0  0  0  0  0  0  0  0  0  0  0  0
    1.1960   53.2870   74.8290 O   0  0  0  0  0  0  0  0  0  0  0  0
   -0.4520   52.8970   77.9920 C   0  0  0  0  0  0  0  0  0  0  0  0
   -0.9750   52.8410   76.5680 C   0  0  0  0  0  0  0  0  0  0  0  0
    2.5589   55.0859   73.5571 H   0  0  0  0  0  0  0  0  0  0  0  0
    2.8314   57.3528   72.5793 H   0  0  0  0  0  0  0  0  0  0  0  0
   -1.2529   56.2901   75.1857 H   0  0  0  0  0  0  0  0  0  0  0  0
   -2.4551   57.8194   75.5265 H   0  0  0  0  0  0  0  0  0  0  0  0
   -3.9017   59.5350   73.8125 H   0  0  0  0  0  0  0  0  0  0  0  0
   -4.1659   59.4547   75.5896 H   0  0  0  0  0  0  0  0  0  0  0  0
   -3.6575   61.7632   74.9034 H   0  0  0  0  0  0  0  0  0  0  0  0
   -2.3306   61.1092   75.9158 H   0  0  0  0  0  0  0  0  0  0  0  0
   -2.4248   61.4199   72.8827 H   0  0  0  0  0  0  0  0  0  0  0  0
   -1.2744   62.1688   74.0748 H   0  0  0  0  0  0  0  0  0  0  0  0
   -1.3054   62.4105   72.3523 H   0  0  0  0  0  0  0  0  0  0  0  0
   -0.6560   64.5489   71.2482 H   0  0  0  0  0  0  0  0  0  0  0  0
    3.4191   63.1496   70.9266 H   0  0  0  0  0  0  0  0  0  0  0  0
    2.7742   61.0077   72.0288 H   0  0  0  0  0  0  0  0  0  0  0  0
   -1.3541   54.8641   75.9478 H   0  0  0  0  0  0  0  0  0  0  0  0
   -1.2930   52.8070   78.6953 H   0  0  0  0  0  0  0  0  0  0  0  0
    0.2536   52.0693   78.1563 H   0  0  0  0  0  0  0  0  0  0  0  0
    0.0624   53.8554   78.1563 H   0  0  0  0  0  0  0  0  0  0  0  0
   -0.4879   52.0065   76.0423 H   0  0  0  0  0  0  0  0  0  0  0  0
   -2.0651   52.6998   76.6094 H   0  0  0  0  0  0  0  0  0  0  0  0
  2  1  2  0
  3  2  1  0
  4  3  2  0
  5  4  1  0
  6  5  2  0
  6  1  1  0
  7  5  1  0
  8  7  1  0
  9  8  1  0
 10  9  1  0
 11 10  1  0
 12  7  2  0
 12 11  1  0
 13 12  1  0
 14 13  2  0
 14  4  1  0
 15 13  1  0
 16 15  2  0
 17 16  1  0
 18 17  2  0
 19 18  1  0
 20 19  2  0
 20 15  1  0
 21 18  1  0
 23 22  1  0
 23  1  1  0
 24 23  2  0
 26 25  1  0
 26 22  1  0
  2 27  1  0
  3 28  1  0
  6 29  1  0
  8 30  1  0
  9 31  1  0
  9 32  1  0
 10 33  1  0
 10 34  1  0
 11 35  1  0
 11 36  1  0
 16 37  1  0
 17 38  1  0
 19 39  1  0
 20 40  1  0
 22 41  1  0
 25 42  1  0
 25 43  1  0
 25 44  1  0
 26 45  1  0
 26 46  1  0
M  END
>  <score>  (7) 
-7.302

$$$$
=
     RDKit          3D

 46 49  0  0  0  0  0  0  0  0999 V2000
    2.8810   57.2520   77.1840 C   0  0  0  0  0  0  0  0  0  0  0  0
    4.1380   57.4480   76.6170 C   0  0  0  0  0  0  0  0  0  0  0  0
    4.2510   58.1750   75.4290 C   0  0  0  0  0  0  0  0  0  0  0  0
    3.1470   58.7190   74.7870 C   0  0  0  0  0  0  0  0  0  0  0  0
    1.8650   58.5380   75.3450 C   0  0  0  0  0  0  0  0  0  0  0  0
    1.7590   57.8100   76.5590 C   0  0  0  0  0  0  0  0  0  0  0  0
    0.7600   59.1050   74.6500 C   0  0  0  0  0  0  0  0  0  0  0  0
   -0.5440   59.0000   75.1880 N   0  0  0  0  0  0  0  0  0  0  0  0
   -1.6570   59.3680   74.3240 C   0  0  0  0  0  0  0  0  0  0  0  0
   -1.3780   60.7060   73.6690 C   0  0  0  0  0  0  0  0  0  0  0  0
   -0.1390   60.5780   72.7930 C   0  0  0  0  0  0  0  0  0  0  0  0
    1.0000   59.8890   73.5050 C   0  0  0  0  0  0  0  0  0  0  0  0
    2.3120   59.9800   73.0300 C   0  0  0  0  0  0  0  0  0  0  0  0
    3.3630   59.4060   73.6620 N   0  0  0  0  0  0  0  0  0  0  0  0
    2.6930   60.7120   71.8110 C   0  0  0  0  0  0  0  0  0  0  0  0
    2.7120   62.1180   71.8030 C   0  0  0  0  0  0  0  0  0  0  0  0
    3.0740   62.8260   70.6540 C   0  0  0  0  0  0  0  0  0  0  0  0
    3.4290   62.1330   69.5000 C   0  0  0  0  0  0  0  0  0  0  0  0
    3.4330   60.7400   69.4880 C   0  0  0  0  0  0  0  0  0  0  0  0
    3.0700   60.0350   70.6400 C   0  0  0  0  0  0  0  0  0  0  0  0
    3.8750   63.0010   68.0830 Cl  0  0  0  0  0  0  0  0  0  0  0  0
    1.5010   55.7940   78.5740 N   0  0  0  0  0  0  0  0  0  0  0  0
    2.6860   56.4910   78.4500 C   0  0  0  0  0  0  0  0  0  0  0  0
    3.5380   56.5350   79.3300 O   0  0  0  0  0  0  0  0  0  0  0  0
   -0.2110   55.4770   80.3060 C   0  0  0  0  0  0  0  0  0  0  0  0
    1.1650   55.0910   79.7950 C   0  0  0  0  0  0  0  0  0  0  0  0
    5.0349   57.0337   77.1007 H   0  0  0  0  0  0  0  0  0  0  0  0
    5.2480   58.3211   74.9879 H   0  0  0  0  0  0  0  0  0  0  0  0
    0.7692   57.6808   77.0211 H   0  0  0  0  0  0  0  0  0  0  0  0
   -0.7002   58.6759   76.1531 H   0  0  0  0  0  0  0  0  0  0  0  0
   -1.7850   58.6005   73.5465 H   0  0  0  0  0  0  0  0  0  0  0  0
   -2.5747   59.4426   74.9259 H   0  0  0  0  0  0  0  0  0  0  0  0
   -2.2385   61.0009   73.0505 H   0  0  0  0  0  0  0  0  0  0  0  0
   -1.2107   61.4712   74.4413 H   0  0  0  0  0  0  0  0  0  0  0  0
   -0.3988   59.9961   71.8964 H   0  0  0  0  0  0  0  0  0  0  0  0
    0.1937   61.5934   72.5319 H   0  0  0  0  0  0  0  0  0  0  0  0
    2.4378   62.6687   72.7149 H   0  0  0  0  0  0  0  0  0  0  0  0
    3.0784   63.9260   70.6613 H   0  0  0  0  0  0  0  0  0  0  0  0
    3.7206   60.1966   68.5759 H   0  0  0  0  0  0  0  0  0  0  0  0
    3.0800   58.9351   70.6286 H   0  0  0  0  0  0  0  0  0  0  0  0
    0.8424   55.7734   77.7823 H   0  0  0  0  0  0  0  0  0  0  0  0
   -0.2072   55.4759   81.4060 H   0  0  0  0  0  0  0  0  0  0  0  0
   -0.4689   56.4822   79.9412 H   0  0  0  0  0  0  0  0  0  0  0  0
   -0.9541   54.7526   79.9412 H   0  0  0  0  0  0  0  0  0  0  0  0
    1.9123   55.3358   80.5642 H   0  0  0  0  0  0  0  0  0  0  0  0
    1.1597   54.0125   79.5787 H   0  0  0  0  0  0  0  0  0  0  0  0
  2  1  2  0
  3  2  1  0
  4  3  2  0
  5  4  1  0
  6  5  2  0
  6  1  1  0
  7  5  1  0
  8  7  1  0
  9  8  1  0
 10  9  1  0
 11 10  1  0
 12  7  2  0
 12 11  1  0
 13 12  1  0
 14 13  2  0
 14  4  1  0
 15 13  1  0
 16 15  2  0
 17 16  1  0
 18 17  2  0
 19 18  1  0
 20 19  2  0
 20 15  1  0
 21 18  1  0
 23 22  1  0
 23  1  1  0
 24 23  2  0
 26 25  1  0
 26 22  1  0
  2 27  1  0
  3 28  1  0
  6 29  1  0
  8 30  1  0
  9 31  1  0
  9 32  1  0
 10 33  1  0
 10 34  1  0
 11 35  1  0
 11 36  1  0
 16 37  1  0
 17 38  1  0
 19 39  1  0
 20 40  1  0
 22 41  1  0
 25 42  1  0
 25 43  1  0
 25 44  1  0
 26 45  1  0
 26 46  1  0
M  END
>  <score>  (8) 
-7.074

$$$$
=
     RDKit          3D

 46 49  0  0  0  0  0  0  0  0999 V2000
    3.0590   62.6250   71.0180 C   0  0  0  0  0  0  0  0  0  0  0  0
    4.3720   62.4670   71.4550 C   0  0  0  0  0  0  0  0  0  0  0  0
    4.6400   61.6280   72.5390 C   0  0  0  0  0  0  0  0  0  0  0  0
    3.6370   60.9360   73.2040 C   0  0  0  0  0  0  0  0  0  0  0  0
    2.3020   61.0760   72.7780 C   0  0  0  0  0  0  0  0  0  0  0  0
    2.0380   61.9190   71.6670 C   0  0  0  0  0  0  0  0  0  0  0  0
    1.3040   60.3550   73.4920 C   0  0  0  0  0  0  0  0  0  0  0  0
   -0.0470   60.4160   73.0790 N   0  0  0  0  0  0  0  0  0  0  0  0
   -1.0500   59.8740   73.9840 C   0  0  0  0  0  0  0  0  0  0  0  0
   -0.6240   58.5000   74.4590 C   0  0  0  0  0  0  0  0  0  0  0  0
    0.6770   58.6280   75.2390 C   0  0  0  0  0  0  0  0  0  0  0  0
    1.6980   59.4740   74.5180 C   0  0  0  0  0  0  0  0  0  0  0  0
    3.0510   59.4340   74.8700 C   0  0  0  0  0  0  0  0  0  0  0  0
    4.0000   60.1510   74.2230 N   0  0  0  0  0  0  0  0  0  0  0  0
    3.5890   58.6070   75.9630 C   0  0  0  0  0  0  0  0  0  0  0  0
    4.4290   57.5160   75.6820 C   0  0  0  0  0  0  0  0  0  0  0  0
    4.9490   56.7250   76.7100 C   0  0  0  0  0  0  0  0  0  0  0  0
    4.6390   57.0220   78.0340 C   0  0  0  0  0  0  0  0  0  0  0  0
    3.8200   58.1070   78.3380 C   0  0  0  0  0  0  0  0  0  0  0  0
    3.3010   58.8970   77.3070 C   0  0  0  0  0  0  0  0  0  0  0  0
    5.2760   56.0500   79.3020 Cl  0  0  0  0  0  0  0  0  0  0  0  0
    1.9740   64.6360   70.1590 N   0  0  0  0  0  0  0  0  0  0  0  0
    2.6990   63.5000   69.8660 C   0  0  0  0  0  0  0  0  0  0  0  0
    3.0170   63.1750   68.7280 O   0  0  0  0  0  0  0  0  0  0  0  0
    1.1160   66.8810   69.6490 C   0  0  0  0  0  0  0  0  0  0  0  0
    1.4940   65.5130   69.1100 C   0  0  0  0  0  0  0  0  0  0  0  0
    5.1918   62.9990   70.9502 H   0  0  0  0  0  0  0  0  0  0  0  0
    5.6803   61.5117   72.8770 H   0  0  0  0  0  0  0  0  0  0  0  0
    1.0039   62.0206   71.3060 H   0  0  0  0  0  0  0  0  0  0  0  0
   -0.3112   60.8281   72.1727 H   0  0  0  0  0  0  0  0  0  0  0  0
   -1.1590   60.5424   74.8508 H   0  0  0  0  0  0  0  0  0  0  0  0
   -2.0109   59.7934   73.4547 H   0  0  0  0  0  0  0  0  0  0  0  0
   -1.4037   58.0760   75.1089 H   0  0  0  0  0  0  0  0  0  0  0  0
   -0.4757   57.8366   73.5941 H   0  0  0  0  0  0  0  0  0  0  0  0
    0.4607   59.0893   76.2139 H   0  0  0  0  0  0  0  0  0  0  0  0
    1.0992   57.6190   75.3559 H   0  0  0  0  0  0  0  0  0  0  0  0
    4.6809   57.2812   74.6373 H   0  0  0  0  0  0  0  0  0  0  0  0
    5.6008   55.8710   76.4737 H   0  0  0  0  0  0  0  0  0  0  0  0
    3.5821   58.3419   79.3860 H   0  0  0  0  0  0  0  0  0  0  0  0
    2.6592   59.7562   77.5517 H   0  0  0  0  0  0  0  0  0  0  0  0
    1.7698   64.8654   71.1421 H   0  0  0  0  0  0  0  0  0  0  0  0
    1.1228   66.8565   70.7487 H   0  0  0  0  0  0  0  0  0  0  0  0
    1.8414   67.6281   69.2944 H   0  0  0  0  0  0  0  0  0  0  0  0
    0.1100   67.1496   69.2944 H   0  0  0  0  0  0  0  0  0  0  0  0
    0.6088   65.0574   68.6421 H   0  0  0  0  0  0  0  0  0  0  0  0
    2.3038   65.6455   68.3774 H   0  0  0  0  0  0  0  0  0  0  0  0
  2  1  2  0
  3  2  1  0
  4  3  2  0
  5  4  1  0
  6  5  2  0
  6  1  1  0
  7  5  1  0
  8  7  1  0
  9  8  1  0
 10  9  1  0
 11 10  1  0
 12  7  2  0
 12 11  1  0
 13 12  1  0
 14 13  2  0
 14  4  1  0
 15 13  1  0
 16 15  2  0
 17 16  1  0
 18 17  2  0
 19 18  1  0
 20 19  2  0
 20 15  1  0
 21 18  1  0
 23 22  1  0
 23  1  1  0
 24 23  2  0
 26 25  1  0
 26 22  1  0
  2 27  1  0
  3 28  1  0
  6 29  1  0
  8 30  1  0
  9 31  1  0
  9 32  1  0
 10 33  1  0
 10 34  1  0
 11 35  1  0
 11 36  1  0
 16 37  1  0
 17 38  1  0
 19 39  1  0
 20 40  1  0
 22 41  1  0
 25 42  1  0
 25 43  1  0
 25 44  1  0
 26 45  1  0
 26 46  1  0
M  END
>  <score>  (9) 
-6.593

$$$$
