=
     RDKit          3D

 62 65  0  0  0  0  0  0  0  0999 V2000
    2.8690   62.6200   71.9950 N   0  0  0  0  0  4  0  0  0  0  0  0
    3.1990   63.2830   70.8630 C   0  0  0  0  0  0  0  0  0  0  0  0
    2.3200   64.1980   70.2940 C   0  0  0  0  0  0  0  0  0  0  0  0
    1.0830   64.4370   70.8950 C   0  0  0  0  0  0  0  0  0  0  0  0
    0.7710   63.7530   72.0680 C   0  0  0  0  0  0  0  0  0  0  0  0
    1.6810   62.8450   72.6020 C   0  0  0  0  0  0  0  0  0  0  0  0
    3.8290   61.6530   72.5840 C   0  0  0  0  0  0  0  0  0  0  0  0
    2.0070   57.7640   73.1530 C   0  0  0  0  0  0  0  0  0  0  0  0
    2.1710   58.6370   74.2370 C   0  0  0  0  0  0  0  0  0  0  0  0
    2.7610   59.8910   74.0590 C   0  0  0  0  0  0  0  0  0  0  0  0
    3.1930   60.3010   72.7870 C   0  0  0  0  0  0  0  0  0  0  0  0
    3.0360   59.4200   71.7050 C   0  0  0  0  0  0  0  0  0  0  0  0
    2.4460   58.1640   71.8850 C   0  0  0  0  0  0  0  0  0  0  0  0
    1.3720   56.4430   73.4040 C   0  0  0  0  0  0  0  0  0  0  0  0
    2.0130   55.4240   73.6050 O   0  0  0  0  0  0  0  0  0  0  0  0
   -0.6510   55.5810   74.1900 C   0  0  0  0  0  0  0  0  0  0  0  0
    0.0220   56.5470   73.3780 O   0  0  0  0  0  0  0  0  0  0  0  0
    0.1170   65.4300   70.2930 C   0  0  0  0  0  0  0  0  0  0  0  0
    0.8400   66.6090   69.6430 C   0  0  0  0  0  0  0  0  0  0  0  0
    0.0780   67.1410   68.4370 C   0  0  0  0  0  0  0  0  0  0  0  0
   -1.0710   66.7550   68.2010 O   0  0  0  0  0  0  0  0  0  0  0  0
    0.7110   68.2170   67.5700 C   0  0  1  0  0  0  0  0  0  0  0  0
    1.9960   68.7560   68.2130 C   0  0  0  0  0  0  0  0  0  0  0  0
    2.9520   69.0960   67.1050 C   0  0  0  0  0  0  0  0  0  0  0  0
    2.6330   68.5500   65.8640 C   0  0  0  0  0  0  0  0  0  0  0  0
    1.1300   67.6220   65.8980 S   0  0  0  0  0  0  0  0  0  0  0  0
    3.4540   68.7360   64.7610 C   0  0  0  0  0  0  0  0  0  0  0  0
    4.6220   69.4910   64.9050 C   0  0  0  0  0  0  0  0  0  0  0  0
    4.9560   70.0470   66.1640 C   0  0  0  0  0  0  0  0  0  0  0  0
    4.1160   69.8410   67.2670 C   0  0  0  0  0  0  0  0  0  0  0  0
    6.1300   70.7580   66.2130 O   0  0  0  0  0  0  0  0  0  0  0  0
    6.7460   70.9250   67.4820 C   0  0  0  0  0  0  0  0  0  0  0  0
    5.5130   69.7330   63.8870 O   0  0  0  0  0  0  0  0  0  0  0  0
    5.2770   69.0970   62.6390 C   0  0  0  0  0  0  0  0  0  0  0  0
    4.1732   63.0963   70.3875 H   0  0  0  0  0  0  0  0  0  0  0  0
    2.5985   64.7317   69.3734 H   0  0  0  0  0  0  0  0  0  0  0  0
   -0.1914   63.9299   72.5705 H   0  0  0  0  0  0  0  0  0  0  0  0
    1.4316   62.3048   73.5272 H   0  0  0  0  0  0  0  0  0  0  0  0
    4.6896   61.5458   71.9073 H   0  0  0  0  0  0  0  0  0  0  0  0
    4.1487   62.0360   73.5644 H   0  0  0  0  0  0  0  0  0  0  0  0
    1.8319   58.3319   75.2380 H   0  0  0  0  0  0  0  0  0  0  0  0
    2.8881   60.5620   74.9213 H   0  0  0  0  0  0  0  0  0  0  0  0
    3.3807   59.7206   70.7046 H   0  0  0  0  0  0  0  0  0  0  0  0
    2.3265   57.4874   71.0260 H   0  0  0  0  0  0  0  0  0  0  0  0
   -0.4870   55.8165   75.2519 H   0  0  0  0  0  0  0  0  0  0  0  0
   -1.7288   55.6052   73.9713 H   0  0  0  0  0  0  0  0  0  0  0  0
   -0.2549   54.5784   73.9713 H   0  0  0  0  0  0  0  0  0  0  0  0
   -0.4876   64.9192   69.5291 H   0  0  0  0  0  0  0  0  0  0  0  0
   -0.5151   65.8233   71.1028 H   0  0  0  0  0  0  0  0  0  0  0  0
    0.9437   67.4158   70.3835 H   0  0  0  0  0  0  0  0  0  0  0  0
    1.8251   66.2602   69.2997 H   0  0  0  0  0  0  0  0  0  0  0  0
   -0.0455   69.0111   67.4857 H   0  0  0  0  0  0  0  0  0  0  0  0
    1.7706   69.6565   68.8032 H   0  0  0  0  0  0  0  0  0  0  0  0
    2.4358   68.0042   68.8848 H   0  0  0  0  0  0  0  0  0  0  0  0
    3.1900   68.2961   63.7880 H   0  0  0  0  0  0  0  0  0  0  0  0
    4.3740   70.2634   68.2494 H   0  0  0  0  0  0  0  0  0  0  0  0
    6.0108   70.7257   68.2755 H   0  0  0  0  0  0  0  0  0  0  0  0
    7.5871   70.2225   67.5766 H   0  0  0  0  0  0  0  0  0  0  0  0
    7.1171   71.9562   67.5766 H   0  0  0  0  0  0  0  0  0  0  0  0
    4.8991   68.0786   62.8121 H   0  0  0  0  0  0  0  0  0  0  0  0
    4.5325   69.6724   62.0692 H   0  0  0  0  0  0  0  0  0  0  0  0
    6.2166   69.0475   62.0692 H   0  0  0  0  0  0  0  0  0  0  0  0
  2  1  2  0
  3  2  1  0
  4  3  2  0
  5  4  1  0
  6  5  2  0
  6  1  1  0
  7  1  1  0
  9  8  2  0
 10  9  1  0
 11 10  2  0
 11  7  1  0
 12 11  1  0
 13 12  2  0
 13  8  1  0
 14  8  1  0
 15 14  2  0
 17 16  1  0
 17 14  1  0
 18  4  1  0
 19 18  1  0
 20 19  1  0
 21 20  2  0
 22 20  1  0
 23 22  1  0
 24 23  1  0
 25 24  2  0
 26 25  1  0
 26 22  1  0
 27 25  1  0
 28 27  2  0
 29 28  1  0
 30 29  2  0
 30 24  1  0
 31 29  1  0
 32 31  1  0
 33 28  1  0
 34 33  1  0
  2 35  1  0
  3 36  1  0
  5 37  1  0
  6 38  1  0
  7 39  1  0
  7 40  1  0
  9 41  1  0
 10 42  1  0
 12 43  1  0
 13 44  1  0
 16 45  1  0
 16 46  1  0
 16 47  1  0
 18 48  1  0
 18 49  1  0
 19 50  1  0
 19 51  1  0
 22 52  1  6
 23 53  1  0
 23 54  1  0
 27 55  1  0
 30 56  1  0
 32 57  1  0
 32 58  1  0
 32 59  1  0
 34 60  1  0
 34 61  1  0
 34 62  1  0
M  CHG  1   1   1
M  END
>  <score>  (1) 
-10.125

$$$$
=
     RDKit          3D

 62 65  0  0  0  0  0  0  0  0999 V2000
   -0.3880   68.1690   67.1420 N   0  0  0  0  0  4  0  0  0  0  0  0
   -1.2530   67.2200   67.5710 C   0  0  0  0  0  0  0  0  0  0  0  0
   -0.9390   66.4130   68.6580 C   0  0  0  0  0  0  0  0  0  0  0  0
    0.2800   66.5800   69.3180 C   0  0  0  0  0  0  0  0  0  0  0  0
    1.1480   67.5730   68.8660 C   0  0  0  0  0  0  0  0  0  0  0  0
    0.7940   68.3570   67.7720 C   0  0  0  0  0  0  0  0  0  0  0  0
   -0.7520   69.0200   65.9810 C   0  0  0  0  0  0  0  0  0  0  0  0
    2.0500   68.5390   62.7130 C   0  0  0  0  0  0  0  0  0  0  0  0
    2.4980   68.5180   64.0400 C   0  0  0  0  0  0  0  0  0  0  0  0
    1.5980   68.6760   65.0980 C   0  0  0  0  0  0  0  0  0  0  0  0
    0.2280   68.8510   64.8470 C   0  0  0  0  0  0  0  0  0  0  0  0
   -0.2170   68.8810   63.5150 C   0  0  0  0  0  0  0  0  0  0  0  0
    0.6860   68.7240   62.4570 C   0  0  0  0  0  0  0  0  0  0  0  0
    3.0550   68.3650   61.6290 C   0  0  0  0  0  0  0  0  0  0  0  0
    3.1540   69.1330   60.6860 O   0  0  0  0  0  0  0  0  0  0  0  0
    5.1200   67.5520   62.3540 C   0  0  0  0  0  0  0  0  0  0  0  0
    3.8130   67.2650   61.8500 O   0  0  0  0  0  0  0  0  0  0  0  0
    0.6370   65.7150   70.5040 C   0  0  0  0  0  0  0  0  0  0  0  0
    1.9220   64.9230   70.2650 C   0  0  0  0  0  0  0  0  0  0  0  0
    1.6850   63.4230   70.3740 C   0  0  0  0  0  0  0  0  0  0  0  0
    1.8440   62.6900   69.3930 O   0  0  0  0  0  0  0  0  0  0  0  0
    1.3330   62.8190   71.7240 C   0  0  1  0  0  0  0  0  0  0  0  0
   -0.1880   62.7490   71.9140 C   0  0  0  0  0  0  0  0  0  0  0  0
   -0.4910   61.5140   72.7130 C   0  0  0  0  0  0  0  0  0  0  0  0
    0.5470   60.5870   72.7820 C   0  0  0  0  0  0  0  0  0  0  0  0
    2.0010   61.1350   71.9410 S   0  0  0  0  0  0  0  0  0  0  0  0
    0.3930   59.3770   73.4420 C   0  0  0  0  0  0  0  0  0  0  0  0
   -0.8330   59.0880   74.0500 C   0  0  0  0  0  0  0  0  0  0  0  0
   -1.8960   60.0220   73.9820 C   0  0  0  0  0  0  0  0  0  0  0  0
   -1.7200   61.2360   73.3040 C   0  0  0  0  0  0  0  0  0  0  0  0
   -3.0670   59.6440   74.5920 O   0  0  0  0  0  0  0  0  0  0  0  0
   -4.0250   60.6570   74.8640 C   0  0  0  0  0  0  0  0  0  0  0  0
   -1.1040   57.9200   74.7220 O   0  0  0  0  0  0  0  0  0  0  0  0
   -0.2740   57.5880   75.8260 C   0  0  0  0  0  0  0  0  0  0  0  0
   -2.2145   67.0863   67.0537 H   0  0  0  0  0  0  0  0  0  0  0  0
   -1.6491   65.6446   68.9976 H   0  0  0  0  0  0  0  0  0  0  0  0
    2.1105   67.7364   69.3729 H   0  0  0  0  0  0  0  0  0  0  0  0
    1.4825   69.1375   67.4160 H   0  0  0  0  0  0  0  0  0  0  0  0
   -1.7562   68.7382   65.6314 H   0  0  0  0  0  0  0  0  0  0  0  0
   -0.7319   70.0718   66.3025 H   0  0  0  0  0  0  0  0  0  0  0  0
    3.5681   68.3758   64.2516 H   0  0  0  0  0  0  0  0  0  0  0  0
    1.9660   68.6631   66.1345 H   0  0  0  0  0  0  0  0  0  0  0  0
   -1.2858   69.0294   63.3012 H   0  0  0  0  0  0  0  0  0  0  0  0
    0.3221   68.7461   61.4192 H   0  0  0  0  0  0  0  0  0  0  0  0
    5.0981   67.5472   63.4538 H   0  0  0  0  0  0  0  0  0  0  0  0
    5.8263   66.7876   61.9980 H   0  0  0  0  0  0  0  0  0  0  0  0
    5.4410   68.5420   61.9980 H   0  0  0  0  0  0  0  0  0  0  0  0
    0.7747   66.3588   71.3852 H   0  0  0  0  0  0  0  0  0  0  0  0
   -0.1817   64.9974   70.6615 H   0  0  0  0  0  0  0  0  0  0  0  0
    2.3004   65.1523   69.2579 H   0  0  0  0  0  0  0  0  0  0  0  0
    2.6525   65.2125   71.0348 H   0  0  0  0  0  0  0  0  0  0  0  0
    1.7900   63.4823   72.4732 H   0  0  0  0  0  0  0  0  0  0  0  0
   -0.5397   63.6405   72.4540 H   0  0  0  0  0  0  0  0  0  0  0  0
   -0.6971   62.7125   70.9396 H   0  0  0  0  0  0  0  0  0  0  0  0
    1.2223   58.6557   73.4866 H   0  0  0  0  0  0  0  0  0  0  0  0
   -2.5445   61.9613   73.2397 H   0  0  0  0  0  0  0  0  0  0  0  0
   -4.1358   60.7742   75.9521 H   0  0  0  0  0  0  0  0  0  0  0  0
   -3.6879   61.6077   74.4253 H   0  0  0  0  0  0  0  0  0  0  0  0
   -4.9931   60.3735   74.4253 H   0  0  0  0  0  0  0  0  0  0  0  0
   -0.8081   57.8016   76.7636 H   0  0  0  0  0  0  0  0  0  0  0  0
   -0.0192   56.5187   75.7846 H   0  0  0  0  0  0  0  0  0  0  0  0
    0.6480   58.1865   75.7846 H   0  0  0  0  0  0  0  0  0  0  0  0
  2  1  2  0
  3  2  1  0
  4  3  2  0
  5  4  1  0
  6  5  2  0
  6  1  1  0
  7  1  1  0
  9  8  2  0
 10  9  1  0
 11 10  2  0
 11  7  1  0
 12 11  1  0
 13 12  2  0
 13  8  1  0
 14  8  1  0
 15 14  2  0
 17 16  1  0
 17 14  1  0
 18  4  1  0
 19 18  1  0
 20 19  1  0
 21 20  2  0
 22 20  1  0
 23 22  1  0
 24 23  1  0
 25 24  2  0
 26 25  1  0
 26 22  1  0
 27 25  1  0
 28 27  2  0
 29 28  1  0
 30 29  2  0
 30 24  1  0
 31 29  1  0
 32 31  1  0
 33 28  1  0
 34 33  1  0
  2 35  1  0
  3 36  1  0
  5 37  1  0
  6 38  1  0
  7 39  1  0
  7 40  1  0
  9 41  1  0
 10 42  1  0
 12 43  1  0
 13 44  1  0
 16 45  1  0
 16 46  1  0
 16 47  1  0
 18 48  1  0
 18 49  1  0
 19 50  1  0
 19 51  1  0
 22 52  1  1
 23 53  1  0
 23 54  1  0
 27 55  1  0
 30 56  1  0
 32 57  1  0
 32 58  1  0
 32 59  1  0
 34 60  1  0
 34 61  1  0
 34 62  1  0
M  CHG  1   1   1
M  END
>  <score>  (2) 
-9.694

$$$$
=
     RDKit          3D

 62 65  0  0  0  0  0  0  0  0999 V2000
    0.7310   67.6520   68.3850 N   0  0  0  0  0  4  0  0  0  0  0  0
   -0.4570   67.0050   68.4130 C   0  0  0  0  0  0  0  0  0  0  0  0
   -0.6920   65.9900   69.3330 C   0  0  0  0  0  0  0  0  0  0  0  0
    0.3060   65.6320   70.2410 C   0  0  0  0  0  0  0  0  0  0  0  0
    1.5170   66.3210   70.2020 C   0  0  0  0  0  0  0  0  0  0  0  0
    1.7090   67.3300   69.2630 C   0  0  0  0  0  0  0  0  0  0  0  0
    0.9530   68.7360   67.3960 C   0  0  0  0  0  0  0  0  0  0  0  0
    4.7940   70.6550   67.9740 C   0  0  0  0  0  0  0  0  0  0  0  0
    3.7750   70.8050   68.9240 C   0  0  0  0  0  0  0  0  0  0  0  0
    2.5330   70.1900   68.7400 C   0  0  0  0  0  0  0  0  0  0  0  0
    2.2890   69.4050   67.6030 C   0  0  0  0  0  0  0  0  0  0  0  0
    3.3080   69.2640   66.6470 C   0  0  0  0  0  0  0  0  0  0  0  0
    4.5510   69.8810   66.8320 C   0  0  0  0  0  0  0  0  0  0  0  0
    6.0940   71.3320   68.2250 C   0  0  0  0  0  0  0  0  0  0  0  0
    6.2650   72.5280   68.0530 O   0  0  0  0  0  0  0  0  0  0  0  0
    7.4890   70.7020   69.9880 C   0  0  0  0  0  0  0  0  0  0  0  0
    7.0200   70.4460   68.6620 O   0  0  0  0  0  0  0  0  0  0  0  0
    0.0680   64.5340   71.2510 C   0  0  0  0  0  0  0  0  0  0  0  0
    0.3230   63.1480   70.6580 C   0  0  0  0  0  0  0  0  0  0  0  0
    1.7330   62.6590   70.9600 C   0  0  0  0  0  0  0  0  0  0  0  0
    2.7030   63.1320   70.3600 O   0  0  0  0  0  0  0  0  0  0  0  0
    1.9480   61.6410   72.0680 C   0  0  1  0  0  0  0  0  0  0  0  0
    0.6100   61.1930   72.6700 C   0  0  0  0  0  0  0  0  0  0  0  0
    0.7450   59.7490   73.0600 C   0  0  0  0  0  0  0  0  0  0  0  0
    1.8360   59.0880   72.5000 C   0  0  0  0  0  0  0  0  0  0  0  0
    2.8300   60.1500   71.4970 S   0  0  0  0  0  0  0  0  0  0  0  0
    2.0580   57.7380   72.7290 C   0  0  0  0  0  0  0  0  0  0  0  0
    1.1650   57.0330   73.5430 C   0  0  0  0  0  0  0  0  0  0  0  0
    0.0520   57.6950   74.1130 C   0  0  0  0  0  0  0  0  0  0  0  0
   -0.1580   59.0580   73.8630 C   0  0  0  0  0  0  0  0  0  0  0  0
   -0.7800   56.9180   74.8830 O   0  0  0  0  0  0  0  0  0  0  0  0
   -2.0450   57.4580   75.2370 C   0  0  0  0  0  0  0  0  0  0  0  0
    1.2780   55.6940   73.8310 O   0  0  0  0  0  0  0  0  0  0  0  0
    2.2620   55.3060   74.7800 C   0  0  0  0  0  0  0  0  0  0  0  0
   -1.2458   67.2855   67.6995 H   0  0  0  0  0  0  0  0  0  0  0  0
   -1.6615   65.4704   69.3456 H   0  0  0  0  0  0  0  0  0  0  0  0
    2.3187   66.0679   70.9114 H   0  0  0  0  0  0  0  0  0  0  0  0
    2.6660   67.8716   69.2342 H   0  0  0  0  0  0  0  0  0  0  0  0
    0.9200   68.3085   66.3830 H   0  0  0  0  0  0  0  0  0  0  0  0
    0.1638   69.4910   67.5270 H   0  0  0  0  0  0  0  0  0  0  0  0
    3.9540   71.4126   69.8233 H   0  0  0  0  0  0  0  0  0  0  0  0
    1.7413   70.3225   69.4921 H   0  0  0  0  0  0  0  0  0  0  0  0
    3.1277   68.6627   65.7437 H   0  0  0  0  0  0  0  0  0  0  0  0
    5.3410   69.7574   66.0766 H   0  0  0  0  0  0  0  0  0  0  0  0
    6.7650   70.3068   70.7157 H   0  0  0  0  0  0  0  0  0  0  0  0
    8.4618   70.2097   70.1343 H   0  0  0  0  0  0  0  0  0  0  0  0
    7.6011   71.7864   70.1343 H   0  0  0  0  0  0  0  0  0  0  0  0
    0.7436   64.6847   72.1059 H   0  0  0  0  0  0  0  0  0  0  0  0
   -0.9853   64.5819   71.5644 H   0  0  0  0  0  0  0  0  0  0  0  0
   -0.4002   62.4382   71.0860 H   0  0  0  0  0  0  0  0  0  0  0  0
    0.2090   63.2151   69.5660 H   0  0  0  0  0  0  0  0  0  0  0  0
    2.5639   62.1519   72.8228 H   0  0  0  0  0  0  0  0  0  0  0  0
    0.3763   61.8003   73.5569 H   0  0  0  0  0  0  0  0  0  0  0  0
   -0.2027   61.3203   71.9397 H   0  0  0  0  0  0  0  0  0  0  0  0
    2.9228   57.2297   72.2776 H   0  0  0  0  0  0  0  0  0  0  0  0
   -1.0264   59.5757   74.2964 H   0  0  0  0  0  0  0  0  0  0  0  0
   -2.1338   57.4959   76.3328 H   0  0  0  0  0  0  0  0  0  0  0  0
   -2.1378   58.4742   74.8262 H   0  0  0  0  0  0  0  0  0  0  0  0
   -2.8431   56.8221   74.8262 H   0  0  0  0  0  0  0  0  0  0  0  0
    1.8716   55.4599   75.7968 H   0  0  0  0  0  0  0  0  0  0  0  0
    2.5086   54.2433   74.6389 H   0  0  0  0  0  0  0  0  0  0  0  0
    3.1675   55.9144   74.6389 H   0  0  0  0  0  0  0  0  0  0  0  0
  2  1  2  0
  3  2  1  0
  4  3  2  0
  5  4  1  0
  6  5  2  0
  6  1  1  0
  7  1  1  0
  9  8  2  0
 10  9  1  0
 11 10  2  0
 11  7  1  0
 12 11  1  0
 13 12  2  0
 13  8  1  0
 14  8  1  0
 15 14  2  0
 17 16  1  0
 17 14  1  0
 18  4  1  0
 19 18  1  0
 20 19  1  0
 21 20  2  0
 22 20  1  0
 23 22  1  0
 24 23  1  0
 25 24  2  0
 26 25  1  0
 26 22  1  0
 27 25  1  0
 28 27  2  0
 29 28  1  0
 30 29  2  0
 30 24  1  0
 31 29  1  0
 32 31  1  0
 33 28  1  0
 34 33  1  0
  2 35  1  0
  3 36  1  0
  5 37  1  0
  6 38  1  0
  7 39  1  0
  7 40  1  0
  9 41  1  0
 10 42  1  0
 12 43  1  0
 13 44  1  0
 16 45  1  0
 16 46  1  0
 16 47  1  0
 18 48  1  0
 18 49  1  0
 19 50  1  0
 19 51  1  0
 22 52  1  1
 23 53  1  0
 23 54  1  0
 27 55  1  0
 30 56  1  0
 32 57  1  0
 32 58  1  0
 32 59  1  0
 34 60  1  0
 34 61  1  0
 34 62  1  0
M  CHG  1   1   1
M  END
>  <score>  (3) 
-9.565

$$$$
=
     RDKit          3D

 62 65  0  0  0  0  0  0  0  0999 V2000
    3.2220   62.4320   71.7930 N   0  0  0  0  0  4  0  0  0  0  0  0
    3.4670   63.2030   70.7080 C   0  0  0  0  0  0  0  0  0  0  0  0
    2.5680   64.1890   70.3200 C   0  0  0  0  0  0  0  0  0  0  0  0
    1.3970   64.3880   71.0530 C   0  0  0  0  0  0  0  0  0  0  0  0
    1.1720   63.5910   72.1750 C   0  0  0  0  0  0  0  0  0  0  0  0
    2.1000   62.6150   72.5260 C   0  0  0  0  0  0  0  0  0  0  0  0
    4.2030   61.3910   72.1890 C   0  0  0  0  0  0  0  0  0  0  0  0
    2.2250   57.7040   73.3120 C   0  0  0  0  0  0  0  0  0  0  0  0
    2.3730   58.0470   71.9610 C   0  0  0  0  0  0  0  0  0  0  0  0
    3.0080   59.2370   71.5950 C   0  0  0  0  0  0  0  0  0  0  0  0
    3.5150   60.1050   72.5740 C   0  0  0  0  0  0  0  0  0  0  0  0
    3.3560   59.7630   73.9270 C   0  0  0  0  0  0  0  0  0  0  0  0
    2.7190   58.5720   74.2930 C   0  0  0  0  0  0  0  0  0  0  0  0
    1.5410   56.4240   73.6400 C   0  0  0  0  0  0  0  0  0  0  0  0
    2.1110   55.4830   74.1690 O   0  0  0  0  0  0  0  0  0  0  0  0
   -0.6500   56.8200   74.3420 C   0  0  0  0  0  0  0  0  0  0  0  0
    0.2370   56.4700   73.2770 O   0  0  0  0  0  0  0  0  0  0  0  0
    0.4090   65.4570   70.6490 C   0  0  0  0  0  0  0  0  0  0  0  0
    1.0640   66.5480   69.8010 C   0  0  0  0  0  0  0  0  0  0  0  0
    0.1990   66.9260   68.6060 C   0  0  0  0  0  0  0  0  0  0  0  0
   -0.9590   66.5080   68.5120 O   0  0  0  0  0  0  0  0  0  0  0  0
    0.7440   67.8940   67.5680 C   0  0  1  0  0  0  0  0  0  0  0  0
    1.8860   67.2550   66.7670 C   0  0  0  0  0  0  0  0  0  0  0  0
    1.8140   67.7860   65.3650 C   0  0  0  0  0  0  0  0  0  0  0  0
    0.6090   68.4020   65.0300 C   0  0  0  0  0  0  0  0  0  0  0  0
   -0.5270   68.4480   66.3830 S   0  0  0  0  0  0  0  0  0  0  0  0
    0.3790   68.8940   63.7540 C   0  0  0  0  0  0  0  0  0  0  0  0
    1.3830   68.7680   62.7880 C   0  0  0  0  0  0  0  0  0  0  0  0
    2.6090   68.1400   63.1170 C   0  0  0  0  0  0  0  0  0  0  0  0
    2.8180   67.6440   64.4110 C   0  0  0  0  0  0  0  0  0  0  0  0
    3.5270   68.0460   62.1000 O   0  0  0  0  0  0  0  0  0  0  0  0
    4.9000   68.2020   62.4350 C   0  0  0  0  0  0  0  0  0  0  0  0
    1.2650   69.2080   61.4910 O   0  0  0  0  0  0  0  0  0  0  0  0
    0.0720   69.8930   61.1350 C   0  0  0  0  0  0  0  0  0  0  0  0
    4.3879   63.0474   70.1269 H   0  0  0  0  0  0  0  0  0  0  0  0
    2.7787   64.8110   69.4375 H   0  0  0  0  0  0  0  0  0  0  0  0
    0.2646   63.7332   72.7803 H   0  0  0  0  0  0  0  0  0  0  0  0
    1.9190   61.9853   73.4095 H   0  0  0  0  0  0  0  0  0  0  0  0
    4.8791   61.1961   71.3434 H   0  0  0  0  0  0  0  0  0  0  0  0
    4.7645   61.7579   73.0609 H   0  0  0  0  0  0  0  0  0  0  0  0
    1.9860   57.3737   71.1820 H   0  0  0  0  0  0  0  0  0  0  0  0
    3.1112   59.4953   70.5307 H   0  0  0  0  0  0  0  0  0  0  0  0
    3.7363   60.4387   74.7073 H   0  0  0  0  0  0  0  0  0  0  0  0
    2.6059   58.3165   75.3569 H   0  0  0  0  0  0  0  0  0  0  0  0
   -0.1588   56.6262   75.3070 H   0  0  0  0  0  0  0  0  0  0  0  0
   -0.9072   57.8870   74.2693 H   0  0  0  0  0  0  0  0  0  0  0  0
   -1.5665   56.2161   74.2693 H   0  0  0  0  0  0  0  0  0  0  0  0
   -0.4000   64.9917   70.0667 H   0  0  0  0  0  0  0  0  0  0  0  0
    0.0197   65.9251   71.5652 H   0  0  0  0  0  0  0  0  0  0  0  0
    1.2193   67.4402   70.4254 H   0  0  0  0  0  0  0  0  0  0  0  0
    2.0217   66.1607   69.4230 H   0  0  0  0  0  0  0  0  0  0  0  0
    1.1051   68.7642   68.1358 H   0  0  0  0  0  0  0  0  0  0  0  0
    2.8537   67.5194   67.2184 H   0  0  0  0  0  0  0  0  0  0  0  0
    1.7912   66.1591   66.7689 H   0  0  0  0  0  0  0  0  0  0  0  0
   -0.5781   69.3759   63.5053 H   0  0  0  0  0  0  0  0  0  0  0  0
    3.7650   67.1479   64.6701 H   0  0  0  0  0  0  0  0  0  0  0  0
    5.0113   68.2146   63.5293 H   0  0  0  0  0  0  0  0  0  0  0  0
    5.4769   67.3636   62.0174 H   0  0  0  0  0  0  0  0  0  0  0  0
    5.2741   69.1484   62.0174 H   0  0  0  0  0  0  0  0  0  0  0  0
   -0.4612   70.1991   62.0472 H   0  0  0  0  0  0  0  0  0  0  0  0
    0.3240   70.7840   60.5411 H   0  0  0  0  0  0  0  0  0  0  0  0
   -0.5704   69.2262   60.5411 H   0  0  0  0  0  0  0  0  0  0  0  0
  2  1  2  0
  3  2  1  0
  4  3  2  0
  5  4  1  0
  6  5  2  0
  6  1  1  0
  7  1  1  0
  9  8  2  0
 10  9  1  0
 11 10  2  0
 11  7  1  0
 12 11  1  0
 13 12  2  0
 13  8  1  0
 14  8  1  0
 15 14  2  0
 17 16  1  0
 17 14  1  0
 18  4  1  0
 19 18  1  0
 20 19  1  0
 21 20  2  0
 22 20  1  0
 23 22  1  0
 24 23  1  0
 25 24  2  0
 26 25  1  0
 26 22  1  0
 27 25  1  0
 28 27  2  0
 29 28  1  0
 30 29  2  0
 30 24  1  0
 31 29  1  0
 32 31  1  0
 33 28  1  0
 34 33  1  0
  2 35  1  0
  3 36  1  0
  5 37  1  0
  6 38  1  0
  7 39  1  0
  7 40  1  0
  9 41  1  0
 10 42  1  0
 12 43  1  0
 13 44  1  0
 16 45  1  0
 16 46  1  0
 16 47  1  0
 18 48  1  0
 18 49  1  0
 19 50  1  0
 19 51  1  0
 22 52  1  1
 23 53  1  0
 23 54  1  0
 27 55  1  0
 30 56  1  0
 32 57  1  0
 32 58  1  0
 32 59  1  0
 34 60  1  0
 34 61  1  0
 34 62  1  0
M  CHG  1   1   1
M  END
>  <score>  (4) 
-9.406

$$$$
=
     RDKit          3D

 62 65  0  0  0  0  0  0  0  0999 V2000
    0.4710   68.0680   68.0640 N   0  0  0  0  0  4  0  0  0  0  0  0
    1.5000   67.8970   68.9270 C   0  0  0  0  0  0  0  0  0  0  0  0
    1.4750   66.8750   69.8680 C   0  0  0  0  0  0  0  0  0  0  0  0
    0.3780   66.0130   69.9280 C   0  0  0  0  0  0  0  0  0  0  0  0
   -0.6630   66.2000   69.0200 C   0  0  0  0  0  0  0  0  0  0  0  0
   -0.5970   67.2380   68.0960 C   0  0  0  0  0  0  0  0  0  0  0  0
    0.5270   69.1640   67.0650 C   0  0  0  0  0  0  0  0  0  0  0  0
    3.2460   68.2060   63.8310 C   0  0  0  0  0  0  0  0  0  0  0  0
    1.8650   68.0300   63.6730 C   0  0  0  0  0  0  0  0  0  0  0  0
    0.9840   68.3350   64.7150 C   0  0  0  0  0  0  0  0  0  0  0  0
    1.4690   68.8300   65.9350 C   0  0  0  0  0  0  0  0  0  0  0  0
    2.8550   68.9960   66.0940 C   0  0  0  0  0  0  0  0  0  0  0  0
    3.7350   68.6890   65.0510 C   0  0  0  0  0  0  0  0  0  0  0  0
    4.1330   67.8650   62.6870 C   0  0  0  0  0  0  0  0  0  0  0  0
    4.8060   68.6960   62.0970 O   0  0  0  0  0  0  0  0  0  0  0  0
    4.5050   65.7090   63.5000 C   0  0  0  0  0  0  0  0  0  0  0  0
    4.0800   66.5390   62.4170 O   0  0  0  0  0  0  0  0  0  0  0  0
    0.3350   64.8940   70.9420 C   0  0  0  0  0  0  0  0  0  0  0  0
    0.2800   63.5200   70.2730 C   0  0  0  0  0  0  0  0  0  0  0  0
    1.6070   62.7830   70.3960 C   0  0  0  0  0  0  0  0  0  0  0  0
    2.4940   62.9440   69.5520 O   0  0  0  0  0  0  0  0  0  0  0  0
    1.8660   61.9100   71.6130 C   0  0  1  0  0  0  0  0  0  0  0  0
    0.5480   61.4740   72.2670 C   0  0  0  0  0  0  0  0  0  0  0  0
    0.7470   60.0920   72.8190 C   0  0  0  0  0  0  0  0  0  0  0  0
    1.8690   59.4210   72.3350 C   0  0  0  0  0  0  0  0  0  0  0  0
    2.8150   60.4040   71.2140 S   0  0  0  0  0  0  0  0  0  0  0  0
    2.1510   58.1170   72.7160 C   0  0  0  0  0  0  0  0  0  0  0  0
    1.2890   57.4700   73.6080 C   0  0  0  0  0  0  0  0  0  0  0  0
    0.1450   58.1430   74.1030 C   0  0  0  0  0  0  0  0  0  0  0  0
   -0.1250   59.4570   73.6980 C   0  0  0  0  0  0  0  0  0  0  0  0
   -0.6510   57.4220   74.9590 O   0  0  0  0  0  0  0  0  0  0  0  0
   -0.7110   57.8430   76.3150 C   0  0  0  0  0  0  0  0  0  0  0  0
    1.4620   56.1800   74.0480 O   0  0  0  0  0  0  0  0  0  0  0  0
    2.4520   55.9500   75.0410 C   0  0  0  0  0  0  0  0  0  0  0  0
    2.3654   68.5746   68.8827 H   0  0  0  0  0  0  0  0  0  0  0  0
    2.3170   66.7453   70.5638 H   0  0  0  0  0  0  0  0  0  0  0  0
   -1.5343   65.5287   69.0340 H   0  0  0  0  0  0  0  0  0  0  0  0
   -1.4221   67.3855   67.3837 H   0  0  0  0  0  0  0  0  0  0  0  0
   -0.4807   69.3265   66.6549 H   0  0  0  0  0  0  0  0  0  0  0  0
    0.8950   70.0714   67.5663 H   0  0  0  0  0  0  0  0  0  0  0  0
    1.4701   67.6482   62.7200 H   0  0  0  0  0  0  0  0  0  0  0  0
   -0.0971   68.1858   64.5773 H   0  0  0  0  0  0  0  0  0  0  0  0
    3.2523   69.3713   67.0486 H   0  0  0  0  0  0  0  0  0  0  0  0
    4.8173   68.8278   65.1899 H   0  0  0  0  0  0  0  0  0  0  0  0
    4.2558   66.1956   64.4545 H   0  0  0  0  0  0  0  0  0  0  0  0
    3.9937   64.7369   63.4395 H   0  0  0  0  0  0  0  0  0  0  0  0
    5.5926   65.5556   63.4395 H   0  0  0  0  0  0  0  0  0  0  0  0
    1.2367   64.9481   71.5697 H   0  0  0  0  0  0  0  0  0  0  0  0
   -0.5764   65.0159   71.5457 H   0  0  0  0  0  0  0  0  0  0  0  0
   -0.5072   62.9204   70.7533 H   0  0  0  0  0  0  0  0  0  0  0  0
    0.0654   63.6662   69.2041 H   0  0  0  0  0  0  0  0  0  0  0  0
    2.4570   62.5315   72.3018 H   0  0  0  0  0  0  0  0  0  0  0  0
    0.2856   62.1676   73.0794 H   0  0  0  0  0  0  0  0  0  0  0  0
   -0.2683   61.4803   71.5297 H   0  0  0  0  0  0  0  0  0  0  0  0
    3.0387   57.5999   72.3228 H   0  0  0  0  0  0  0  0  0  0  0  0
   -1.0172   59.9812   74.0711 H   0  0  0  0  0  0  0  0  0  0  0  0
   -0.5869   56.9720   76.9752 H   0  0  0  0  0  0  0  0  0  0  0  0
    0.0929   58.5682   76.5097 H   0  0  0  0  0  0  0  0  0  0  0  0
   -1.6855   58.3147   76.5097 H   0  0  0  0  0  0  0  0  0  0  0  0
    2.0015   56.0547   76.0390 H   0  0  0  0  0  0  0  0  0  0  0  0
    2.8572   54.9338   74.9263 H   0  0  0  0  0  0  0  0  0  0  0  0
    3.2637   56.6835   74.9263 H   0  0  0  0  0  0  0  0  0  0  0  0
  2  1  2  0
  3  2  1  0
  4  3  2  0
  5  4  1  0
  6  5  2  0
  6  1  1  0
  7  1  1  0
  9  8  2  0
 10  9  1  0
 11 10  2  0
 11  7  1  0
 12 11  1  0
 13 12  2  0
 13  8  1  0
 14  8  1  0
 15 14  2  0
 17 16  1  0
 17 14  1  0
 18  4  1  0
 19 18  1  0
 20 19  1  0
 21 20  2  0
 22 20  1  0
 23 22  1  0
 24 23  1  0
 25 24  2  0
 26 25  1  0
 26 22  1  0
 27 25  1  0
 28 27  2  0
 29 28  1  0
 30 29  2  0
 30 24  1  0
 31 29  1  0
 32 31  1  0
 33 28  1  0
 34 33  1  0
  2 35  1  0
  3 36  1  0
  5 37  1  0
  6 38  1  0
  7 39  1  0
  7 40  1  0
  9 41  1  0
 10 42  1  0
 12 43  1  0
 13 44  1  0
 16 45  1  0
 16 46  1  0
 16 47  1  0
 18 48  1  0
 18 49  1  0
 19 50  1  0
 19 51  1  0
 22 52  1  1
 23 53  1  0
 23 54  1  0
 27 55  1  0
 30 56  1  0
 32 57  1  0
 32 58  1  0
 32 59  1  0
 34 60  1  0
 34 61  1  0
 34 62  1  0
M  CHG  1   1   1
M  END
>  <score>  (5) 
-9.231

$$$$
=
     RDKit          3D

 62 65  0  0  0  0  0  0  0  0999 V2000
    1.0730   63.2240   73.1230 N   0  0  0  0  0  4  0  0  0  0  0  0
    0.1880   64.2180   72.8750 C   0  0  0  0  0  0  0  0  0  0  0  0
    0.2820   64.9800   71.7170 C   0  0  0  0  0  0  0  0  0  0  0  0
    1.2980   64.7210   70.7960 C   0  0  0  0  0  0  0  0  0  0  0  0
    2.1900   63.6840   71.0660 C   0  0  0  0  0  0  0  0  0  0  0  0
    2.0590   62.9480   72.2390 C   0  0  0  0  0  0  0  0  0  0  0  0
    0.9450   62.4220   74.3650 C   0  0  0  0  0  0  0  0  0  0  0  0
   -3.0980   60.9590   74.8930 C   0  0  0  0  0  0  0  0  0  0  0  0
   -2.2980   60.4730   73.8510 C   0  0  0  0  0  0  0  0  0  0  0  0
   -0.9940   60.9450   73.6750 C   0  0  0  0  0  0  0  0  0  0  0  0
   -0.4610   61.9080   74.5460 C   0  0  0  0  0  0  0  0  0  0  0  0
   -1.2690   62.4010   75.5830 C   0  0  0  0  0  0  0  0  0  0  0  0
   -2.5750   61.9290   75.7580 C   0  0  0  0  0  0  0  0  0  0  0  0
   -4.4770   60.4190   75.0310 C   0  0  0  0  0  0  0  0  0  0  0  0
   -5.4310   61.1070   75.3610 O   0  0  0  0  0  0  0  0  0  0  0  0
   -4.6540   58.2540   75.8850 C   0  0  0  0  0  0  0  0  0  0  0  0
   -4.5060   59.0970   74.7400 O   0  0  0  0  0  0  0  0  0  0  0  0
    1.4140   65.5360   69.5290 C   0  0  0  0  0  0  0  0  0  0  0  0
    0.5950   66.8250   69.6030 C   0  0  0  0  0  0  0  0  0  0  0  0
    0.0000   67.1910   68.2510 C   0  0  0  0  0  0  0  0  0  0  0  0
   -1.0580   66.6800   67.8710 O   0  0  0  0  0  0  0  0  0  0  0  0
    0.6750   68.2580   67.4030 C   0  0  1  0  0  0  0  0  0  0  0  0
    1.9390   68.7890   68.0920 C   0  0  0  0  0  0  0  0  0  0  0  0
    2.9390   69.1160   67.0200 C   0  0  0  0  0  0  0  0  0  0  0  0
    2.6630   68.5660   65.7700 C   0  0  0  0  0  0  0  0  0  0  0  0
    1.1520   67.6510   65.7510 S   0  0  0  0  0  0  0  0  0  0  0  0
    3.5260   68.7400   64.6980 C   0  0  0  0  0  0  0  0  0  0  0  0
    4.6950   69.4860   64.8830 C   0  0  0  0  0  0  0  0  0  0  0  0
    4.9860   70.0450   66.1510 C   0  0  0  0  0  0  0  0  0  0  0  0
    4.1030   69.8520   67.2220 C   0  0  0  0  0  0  0  0  0  0  0  0
    6.1630   70.7470   66.2420 O   0  0  0  0  0  0  0  0  0  0  0  0
    6.5570   71.2100   67.5260 C   0  0  0  0  0  0  0  0  0  0  0  0
    5.6260   69.7160   63.8990 O   0  0  0  0  0  0  0  0  0  0  0  0
    5.5330   68.9430   62.7110 C   0  0  0  0  0  0  0  0  0  0  0  0
   -0.6145   64.4247   73.5984 H   0  0  0  0  0  0  0  0  0  0  0  0
   -0.4426   65.7854   71.5266 H   0  0  0  0  0  0  0  0  0  0  0  0
    2.9946   63.4487   70.3538 H   0  0  0  0  0  0  0  0  0  0  0  0
    2.7656   62.1318   72.4503 H   0  0  0  0  0  0  0  0  0  0  0  0
    1.6345   61.5666   74.3113 H   0  0  0  0  0  0  0  0  0  0  0  0
    1.1901   63.0681   75.2209 H   0  0  0  0  0  0  0  0  0  0  0  0
   -2.6996   59.7128   73.1648 H   0  0  0  0  0  0  0  0  0  0  0  0
   -0.3808   60.5587   72.8475 H   0  0  0  0  0  0  0  0  0  0  0  0
   -0.8713   63.1666   76.2654 H   0  0  0  0  0  0  0  0  0  0  0  0
   -3.1936   62.3215   76.5785 H   0  0  0  0  0  0  0  0  0  0  0  0
   -4.5483   58.8559   76.7996 H   0  0  0  0  0  0  0  0  0  0  0  0
   -5.6484   57.7840   75.8682 H   0  0  0  0  0  0  0  0  0  0  0  0
   -3.8792   57.4734   75.8682 H   0  0  0  0  0  0  0  0  0  0  0  0
    2.4709   65.7950   69.3683 H   0  0  0  0  0  0  0  0  0  0  0  0
    1.0230   64.9310   68.6976 H   0  0  0  0  0  0  0  0  0  0  0  0
   -0.2219   66.6875   70.3267 H   0  0  0  0  0  0  0  0  0  0  0  0
    1.2647   67.6398   69.9153 H   0  0  0  0  0  0  0  0  0  0  0  0
   -0.0707   69.0581   67.2860 H   0  0  0  0  0  0  0  0  0  0  0  0
    1.6991   69.6940   68.6694 H   0  0  0  0  0  0  0  0  0  0  0  0
    2.3466   68.0365   68.7831 H   0  0  0  0  0  0  0  0  0  0  0  0
    3.2948   68.2982   63.7175 H   0  0  0  0  0  0  0  0  0  0  0  0
    4.3273   70.2774   68.2113 H   0  0  0  0  0  0  0  0  0  0  0  0
    6.0512   70.6157   68.3012 H   0  0  0  0  0  0  0  0  0  0  0  0
    7.6464   71.1044   67.6355 H   0  0  0  0  0  0  0  0  0  0  0  0
    6.2784   72.2685   67.6355 H   0  0  0  0  0  0  0  0  0  0  0  0
    5.4054   67.8823   62.9728 H   0  0  0  0  0  0  0  0  0  0  0  0
    4.6691   69.2813   62.1201 H   0  0  0  0  0  0  0  0  0  0  0  0
    6.4525   69.0668   62.1201 H   0  0  0  0  0  0  0  0  0  0  0  0
  2  1  2  0
  3  2  1  0
  4  3  2  0
  5  4  1  0
  6  5  2  0
  6  1  1  0
  7  1  1  0
  9  8  2  0
 10  9  1  0
 11 10  2  0
 11  7  1  0
 12 11  1  0
 13 12  2  0
 13  8  1  0
 14  8  1  0
 15 14  2  0
 17 16  1  0
 17 14  1  0
 18  4  1  0
 19 18  1  0
 20 19  1  0
 21 20  2  0
 22 20  1  0
 23 22  1  0
 24 23  1  0
 25 24  2  0
 26 25  1  0
 26 22  1  0
 27 25  1  0
 28 27  2  0
 29 28  1  0
 30 29  2  0
 30 24  1  0
 31 29  1  0
 32 31  1  0
 33 28  1  0
 34 33  1  0
  2 35  1  0
  3 36  1  0
  5 37  1  0
  6 38  1  0
  7 39  1  0
  7 40  1  0
  9 41  1  0
 10 42  1  0
 12 43  1  0
 13 44  1  0
 16 45  1  0
 16 46  1  0
 16 47  1  0
 18 48  1  0
 18 49  1  0
 19 50  1  0
 19 51  1  0
 22 52  1  6
 23 53  1  0
 23 54  1  0
 27 55  1  0
 30 56  1  0
 32 57  1  0
 32 58  1  0
 32 59  1  0
 34 60  1  0
 34 61  1  0
 34 62  1  0
M  CHG  1   1   1
M  END
>  <score>  (6) 
-8.938

$$$$
=
     RDKit          3D

 62 65  0  0  0  0  0  0  0  0999 V2000
    0.5800   67.7480   68.3380 N   0  0  0  0  0  4  0  0  0  0  0  0
   -0.6200   67.1220   68.3380 C   0  0  0  0  0  0  0  0  0  0  0  0
   -0.8380   66.0030   69.1340 C   0  0  0  0  0  0  0  0  0  0  0  0
    0.1900   65.5180   69.9440 C   0  0  0  0  0  0  0  0  0  0  0  0
    1.4130   66.1870   69.9380 C   0  0  0  0  0  0  0  0  0  0  0  0
    1.5870   67.3020   69.1240 C   0  0  0  0  0  0  0  0  0  0  0  0
    0.7830   68.9440   67.4830 C   0  0  0  0  0  0  0  0  0  0  0  0
    4.9110   70.2560   67.5450 C   0  0  0  0  0  0  0  0  0  0  0  0
    4.0570   70.5490   68.6170 C   0  0  0  0  0  0  0  0  0  0  0  0
    2.7240   70.1300   68.5990 C   0  0  0  0  0  0  0  0  0  0  0  0
    2.2200   69.4020   67.5100 C   0  0  0  0  0  0  0  0  0  0  0  0
    3.0760   69.1190   66.4330 C   0  0  0  0  0  0  0  0  0  0  0  0
    4.4100   69.5400   66.4510 C   0  0  0  0  0  0  0  0  0  0  0  0
    6.3200   70.7280   67.6210 C   0  0  0  0  0  0  0  0  0  0  0  0
    7.1440   70.5030   66.7480 O   0  0  0  0  0  0  0  0  0  0  0  0
    7.6550   70.9580   69.5220 C   0  0  0  0  0  0  0  0  0  0  0  0
    6.5340   71.4210   68.7650 O   0  0  0  0  0  0  0  0  0  0  0  0
   -0.0290   64.3050   70.8180 C   0  0  0  0  0  0  0  0  0  0  0  0
    0.8360   64.3470   72.0780 C   0  0  0  0  0  0  0  0  0  0  0  0
    0.5080   63.2000   73.0240 C   0  0  0  0  0  0  0  0  0  0  0  0
   -0.3510   63.3360   73.9010 O   0  0  0  0  0  0  0  0  0  0  0  0
    1.1850   61.8540   72.8260 C   0  0  1  0  0  0  0  0  0  0  0  0
    2.2610   61.6180   73.8950 C   0  0  0  0  0  0  0  0  0  0  0  0
    2.2810   60.1480   74.2050 C   0  0  0  0  0  0  0  0  0  0  0  0
    1.1660   59.4380   73.7660 C   0  0  0  0  0  0  0  0  0  0  0  0
    0.0150   60.4560   72.8940 S   0  0  0  0  0  0  0  0  0  0  0  0
    1.0230   58.0830   74.0270 C   0  0  0  0  0  0  0  0  0  0  0  0
    2.0250   57.4220   74.7450 C   0  0  0  0  0  0  0  0  0  0  0  0
    3.1610   58.1360   75.1990 C   0  0  0  0  0  0  0  0  0  0  0  0
    3.2810   59.5060   74.9300 C   0  0  0  0  0  0  0  0  0  0  0  0
    4.0830   57.4080   75.9100 O   0  0  0  0  0  0  0  0  0  0  0  0
    4.1430   57.6130   77.3150 C   0  0  0  0  0  0  0  0  0  0  0  0
    1.9870   56.0870   75.0700 O   0  0  0  0  0  0  0  0  0  0  0  0
    0.7150   55.4570   75.1160 C   0  0  0  0  0  0  0  0  0  0  0  0
   -1.4320   67.5028   67.7011 H   0  0  0  0  0  0  0  0  0  0  0  0
   -1.8171   65.5018   69.1254 H   0  0  0  0  0  0  0  0  0  0  0  0
    2.2378   65.8346   70.5747 H   0  0  0  0  0  0  0  0  0  0  0  0
    2.5538   67.8266   69.1194 H   0  0  0  0  0  0  0  0  0  0  0  0
    0.5060   68.6952   66.4479 H   0  0  0  0  0  0  0  0  0  0  0  0
    0.1528   69.7579   67.8707 H   0  0  0  0  0  0  0  0  0  0  0  0
    4.4394   71.1137   69.4801 H   0  0  0  0  0  0  0  0  0  0  0  0
    2.0644   70.3727   69.4452 H   0  0  0  0  0  0  0  0  0  0  0  0
    2.6934   68.5604   65.5661 H   0  0  0  0  0  0  0  0  0  0  0  0
    5.0687   69.3073   65.6013 H   0  0  0  0  0  0  0  0  0  0  0  0
    7.4350   71.0489   70.5959 H   0  0  0  0  0  0  0  0  0  0  0  0
    7.8534   69.9043   69.2762 H   0  0  0  0  0  0  0  0  0  0  0  0
    8.5391   71.5646   69.2762 H   0  0  0  0  0  0  0  0  0  0  0  0
   -1.0876   64.2666   71.1144 H   0  0  0  0  0  0  0  0  0  0  0  0
    0.2534   63.4127   70.2400 H   0  0  0  0  0  0  0  0  0  0  0  0
    1.8944   64.2772   71.7864 H   0  0  0  0  0  0  0  0  0  0  0  0
    0.6333   65.2927   72.6020 H   0  0  0  0  0  0  0  0  0  0  0  0
    1.6333   61.8939   71.8223 H   0  0  0  0  0  0  0  0  0  0  0  0
    3.2434   61.9341   73.5142 H   0  0  0  0  0  0  0  0  0  0  0  0
    2.0384   62.2003   74.8013 H   0  0  0  0  0  0  0  0  0  0  0  0
    0.1354   57.5369   73.6748 H   0  0  0  0  0  0  0  0  0  0  0  0
    4.1561   60.0682   75.2879 H   0  0  0  0  0  0  0  0  0  0  0  0
    3.8705   56.6819   77.8334 H   0  0  0  0  0  0  0  0  0  0  0  0
    5.1645   57.9056   77.5996 H   0  0  0  0  0  0  0  0  0  0  0  0
    3.4405   58.4102   77.5996 H   0  0  0  0  0  0  0  0  0  0  0  0
    0.4167   55.3093   76.1644 H   0  0  0  0  0  0  0  0  0  0  0  0
   -0.0271   56.0917   74.6096 H   0  0  0  0  0  0  0  0  0  0  0  0
    0.7702   54.4821   74.6096 H   0  0  0  0  0  0  0  0  0  0  0  0
  2  1  2  0
  3  2  1  0
  4  3  2  0
  5  4  1  0
  6  5  2  0
  6  1  1  0
  7  1  1  0
  9  8  2  0
 10  9  1  0
 11 10  2  0
 11  7  1  0
 12 11  1  0
 13 12  2  0
 13  8  1  0
 14  8  1  0
 15 14  2  0
 17 16  1  0
 17 14  1  0
 18  4  1  0
 19 18  1  0
 20 19  1  0
 21 20  2  0
 22 20  1  0
 23 22  1  0
 24 23  1  0
 25 24  2  0
 26 25  1  0
 26 22  1  0
 27 25  1  0
 28 27  2  0
 29 28  1  0
 30 29  2  0
 30 24  1  0
 31 29  1  0
 32 31  1  0
 33 28  1  0
 34 33  1  0
  2 35  1  0
  3 36  1  0
  5 37  1  0
  6 38  1  0
  7 39  1  0
  7 40  1  0
  9 41  1  0
 10 42  1  0
 12 43  1  0
 13 44  1  0
 16 45  1  0
 16 46  1  0
 16 47  1  0
 18 48  1  0
 18 49  1  0
 19 50  1  0
 19 51  1  0
 22 52  1  6
 23 53  1  0
 23 54  1  0
 27 55  1  0
 30 56  1  0
 32 57  1  0
 32 58  1  0
 32 59  1  0
 34 60  1  0
 34 61  1  0
 34 62  1  0
M  CHG  1   1   1
M  END
>  <score>  (7) 
-8.473

$$$$
=
     RDKit          3D

 62 65  0  0  0  0  0  0  0  0999 V2000
    2.5130   62.6660   70.8130 N   0  0  0  0  0  4  0  0  0  0  0  0
    1.1620   62.5780   70.7930 C   0  0  0  0  0  0  0  0  0  0  0  0
    0.3800   63.6980   70.5370 C   0  0  0  0  0  0  0  0  0  0  0  0
    0.9910   64.9300   70.2990 C   0  0  0  0  0  0  0  0  0  0  0  0
    2.3840   64.9950   70.3120 C   0  0  0  0  0  0  0  0  0  0  0  0
    3.1270   63.8480   70.5740 C   0  0  0  0  0  0  0  0  0  0  0  0
    3.3230   61.4520   71.0830 C   0  0  0  0  0  0  0  0  0  0  0  0
    2.0500   59.4680   74.7170 C   0  0  0  0  0  0  0  0  0  0  0  0
    2.6940   60.7110   74.7750 C   0  0  0  0  0  0  0  0  0  0  0  0
    3.1100   61.3530   73.6060 C   0  0  0  0  0  0  0  0  0  0  0  0
    2.8800   60.7660   72.3510 C   0  0  0  0  0  0  0  0  0  0  0  0
    2.2430   59.5160   72.2960 C   0  0  0  0  0  0  0  0  0  0  0  0
    1.8290   58.8740   73.4690 C   0  0  0  0  0  0  0  0  0  0  0  0
    1.6300   58.8340   75.9960 C   0  0  0  0  0  0  0  0  0  0  0  0
    0.8720   59.3720   76.7870 O   0  0  0  0  0  0  0  0  0  0  0  0
    3.5540   57.6510   76.5850 C   0  0  0  0  0  0  0  0  0  0  0  0
    2.1980   57.6120   76.1340 O   0  0  0  0  0  0  0  0  0  0  0  0
    0.1590   66.1590   70.0160 C   0  0  0  0  0  0  0  0  0  0  0  0
    0.8630   67.1170   69.0550 C   0  0  0  0  0  0  0  0  0  0  0  0
   -0.0660   67.5810   67.9420 C   0  0  0  0  0  0  0  0  0  0  0  0
   -1.0420   68.2940   68.1960 O   0  0  0  0  0  0  0  0  0  0  0  0
    0.2630   67.2300   66.5010 C   0  0  1  0  0  0  0  0  0  0  0  0
   -0.3530   68.2480   65.5320 C   0  0  0  0  0  0  0  0  0  0  0  0
    0.5860   68.4000   64.3710 C   0  0  0  0  0  0  0  0  0  0  0  0
    1.8720   67.9080   64.5850 C   0  0  0  0  0  0  0  0  0  0  0  0
    2.0580   67.1700   66.1800 S   0  0  0  0  0  0  0  0  0  0  0  0
    2.8610   68.0260   63.6200 C   0  0  0  0  0  0  0  0  0  0  0  0
    2.5540   68.6520   62.4070 C   0  0  0  0  0  0  0  0  0  0  0  0
    1.2510   69.1590   62.1820 C   0  0  0  0  0  0  0  0  0  0  0  0
    0.2680   69.0350   63.1730 C   0  0  0  0  0  0  0  0  0  0  0  0
    1.0470   69.7720   60.9700 O   0  0  0  0  0  0  0  0  0  0  0  0
   -0.2950   70.0300   60.5790 C   0  0  0  0  0  0  0  0  0  0  0  0
    3.4530   68.8340   61.3840 O   0  0  0  0  0  0  0  0  0  0  0  0
    4.7960   69.1360   61.7350 C   0  0  0  0  0  0  0  0  0  0  0  0
    0.6777   61.6085   70.9816 H   0  0  0  0  0  0  0  0  0  0  0  0
   -0.7167   63.6137   70.5220 H   0  0  0  0  0  0  0  0  0  0  0  0
    2.8937   65.9498   70.1158 H   0  0  0  0  0  0  0  0  0  0  0  0
    4.2256   63.9027   70.5870 H   0  0  0  0  0  0  0  0  0  0  0  0
    3.2125   60.7533   70.2406 H   0  0  0  0  0  0  0  0  0  0  0  0
    4.3734   61.7560   71.2025 H   0  0  0  0  0  0  0  0  0  0  0  0
    2.8738   61.1861   75.7507 H   0  0  0  0  0  0  0  0  0  0  0  0
    3.6212   62.3250   73.6689 H   0  0  0  0  0  0  0  0  0  0  0  0
    2.0676   59.0365   71.3217 H   0  0  0  0  0  0  0  0  0  0  0  0
    1.3271   57.8970   73.4096 H   0  0  0  0  0  0  0  0  0  0  0  0
    3.5747   57.6516   77.6848 H   0  0  0  0  0  0  0  0  0  0  0  0
    4.0911   56.7679   76.2086 H   0  0  0  0  0  0  0  0  0  0  0  0
    4.0395   58.5635   76.2086 H   0  0  0  0  0  0  0  0  0  0  0  0
   -0.7964   65.8462   69.5695 H   0  0  0  0  0  0  0  0  0  0  0  0
   -0.0011   66.6879   70.9671 H   0  0  0  0  0  0  0  0  0  0  0  0
    1.2110   67.9954   69.6184 H   0  0  0  0  0  0  0  0  0  0  0  0
    1.7082   66.5830   68.5961 H   0  0  0  0  0  0  0  0  0  0  0  0
   -0.1621   66.2288   66.3370 H   0  0  0  0  0  0  0  0  0  0  0  0
   -1.3296   67.8854   65.1788 H   0  0  0  0  0  0  0  0  0  0  0  0
   -0.5040   69.2150   66.0342 H   0  0  0  0  0  0  0  0  0  0  0  0
    3.8716   67.6333   63.8055 H   0  0  0  0  0  0  0  0  0  0  0  0
   -0.7432   69.4346   63.0066 H   0  0  0  0  0  0  0  0  0  0  0  0
   -0.9213   70.1504   61.4752 H   0  0  0  0  0  0  0  0  0  0  0  0
   -0.3315   70.9516   59.9796 H   0  0  0  0  0  0  0  0  0  0  0  0
   -0.6707   69.1876   59.9796 H   0  0  0  0  0  0  0  0  0  0  0  0
    4.8926   69.1577   62.8305 H   0  0  0  0  0  0  0  0  0  0  0  0
    5.4647   68.3658   61.3231 H   0  0  0  0  0  0  0  0  0  0  0  0
    5.0706   70.1183   61.3231 H   0  0  0  0  0  0  0  0  0  0  0  0
  2  1  2  0
  3  2  1  0
  4  3  2  0
  5  4  1  0
  6  5  2  0
  6  1  1  0
  7  1  1  0
  9  8  2  0
 10  9  1  0
 11 10  2  0
 11  7  1  0
 12 11  1  0
 13 12  2  0
 13  8  1  0
 14  8  1  0
 15 14  2  0
 17 16  1  0
 17 14  1  0
 18  4  1  0
 19 18  1  0
 20 19  1  0
 21 20  2  0
 22 20  1  0
 23 22  1  0
 24 23  1  0
 25 24  2  0
 26 25  1  0
 26 22  1  0
 27 25  1  0
 28 27  2  0
 29 28  1  0
 30 29  2  0
 30 24  1  0
 31 29  1  0
 32 31  1  0
 33 28  1  0
 34 33  1  0
  2 35  1  0
  3 36  1  0
  5 37  1  0
  6 38  1  0
  7 39  1  0
  7 40  1  0
  9 41  1  0
 10 42  1  0
 12 43  1  0
 13 44  1  0
 16 45  1  0
 16 46  1  0
 16 47  1  0
 18 48  1  0
 18 49  1  0
 19 50  1  0
 19 51  1  0
 22 52  1  6
 23 53  1  0
 23 54  1  0
 27 55  1  0
 30 56  1  0
 32 57  1  0
 32 58  1  0
 32 59  1  0
 34 60  1  0
 34 61  1  0
 34 62  1  0
M  CHG  1   1   1
M  END
>  <score>  (8) 
-8.067

$$$$
=
     RDKit          3D

 62 65  0  0  0  0  0  0  0  0999 V2000
    0.3490   61.2910   74.0940 N   0  0  0  0  0  4  0  0  0  0  0  0
    1.2350   62.2280   74.5040 C   0  0  0  0  0  0  0  0  0  0  0  0
    1.8660   63.0590   73.5850 C   0  0  0  0  0  0  0  0  0  0  0  0
    1.5840   62.9280   72.2240 C   0  0  0  0  0  0  0  0  0  0  0  0
    0.6570   61.9650   71.8270 C   0  0  0  0  0  0  0  0  0  0  0  0
    0.0510   61.1540   72.7820 C   0  0  0  0  0  0  0  0  0  0  0  0
   -0.3140   60.4210   75.0980 C   0  0  0  0  0  0  0  0  0  0  0  0
   -4.6060   61.0080   75.0910 C   0  0  0  0  0  0  0  0  0  0  0  0
   -4.0580   59.7770   74.7080 C   0  0  0  0  0  0  0  0  0  0  0  0
   -2.6730   59.5840   74.7060 C   0  0  0  0  0  0  0  0  0  0  0  0
   -1.8090   60.6200   75.0960 C   0  0  0  0  0  0  0  0  0  0  0  0
   -2.3620   61.8560   75.4700 C   0  0  0  0  0  0  0  0  0  0  0  0
   -3.7480   62.0470   75.4700 C   0  0  0  0  0  0  0  0  0  0  0  0
   -6.0870   61.1530   75.0740 C   0  0  0  0  0  0  0  0  0  0  0  0
   -6.6840   61.9590   75.7700 O   0  0  0  0  0  0  0  0  0  0  0  0
   -7.4290   60.9120   73.1790 C   0  0  0  0  0  0  0  0  0  0  0  0
   -6.6440   60.2850   74.1960 O   0  0  0  0  0  0  0  0  0  0  0  0
    2.2560   63.8240   71.2100 C   0  0  0  0  0  0  0  0  0  0  0  0
    2.9910   63.0210   70.1370 C   0  0  0  0  0  0  0  0  0  0  0  0
    4.3450   62.5300   70.6310 C   0  0  0  0  0  0  0  0  0  0  0  0
    5.3120   63.2970   70.6740 O   0  0  0  0  0  0  0  0  0  0  0  0
    4.4790   61.1090   71.1520 C   0  0  1  0  0  0  0  0  0  0  0  0
    4.3800   61.0730   72.6830 C   0  0  0  0  0  0  0  0  0  0  0  0
    3.6980   59.7910   73.0660 C   0  0  0  0  0  0  0  0  0  0  0  0
    3.0310   59.1450   72.0270 C   0  0  0  0  0  0  0  0  0  0  0  0
    3.2050   59.9880   70.4840 S   0  0  0  0  0  0  0  0  0  0  0  0
    2.3130   57.9790   72.2450 C   0  0  0  0  0  0  0  0  0  0  0  0
    2.2640   57.4430   73.5360 C   0  0  0  0  0  0  0  0  0  0  0  0
    2.9360   58.0950   74.5990 C   0  0  0  0  0  0  0  0  0  0  0  0
    3.6500   59.2760   74.3590 C   0  0  0  0  0  0  0  0  0  0  0  0
    2.8170   57.5060   75.8340 O   0  0  0  0  0  0  0  0  0  0  0  0
    2.1260   58.2270   76.8450 C   0  0  0  0  0  0  0  0  0  0  0  0
    1.5780   56.3010   73.8720 O   0  0  0  0  0  0  0  0  0  0  0  0
    0.1890   56.2570   73.5770 C   0  0  0  0  0  0  0  0  0  0  0  0
    1.4584   62.3334   75.5759 H   0  0  0  0  0  0  0  0  0  0  0  0
    2.5850   63.8171   73.9292 H   0  0  0  0  0  0  0  0  0  0  0  0
    0.4055   61.8467   70.7627 H   0  0  0  0  0  0  0  0  0  0  0  0
   -0.6782   60.3934   72.4662 H   0  0  0  0  0  0  0  0  0  0  0  0
   -0.0925   59.3696   74.8626 H   0  0  0  0  0  0  0  0  0  0  0  0
    0.0696   60.6869   76.0941 H   0  0  0  0  0  0  0  0  0  0  0  0
   -4.7233   58.9546   74.4061 H   0  0  0  0  0  0  0  0  0  0  0  0
   -2.2573   58.6137   74.3967 H   0  0  0  0  0  0  0  0  0  0  0  0
   -1.6986   62.6821   75.7659 H   0  0  0  0  0  0  0  0  0  0  0  0
   -4.1659   63.0194   75.7696 H   0  0  0  0  0  0  0  0  0  0  0  0
   -8.2068   61.5333   73.6470 H   0  0  0  0  0  0  0  0  0  0  0  0
   -6.7816   61.5444   72.5537 H   0  0  0  0  0  0  0  0  0  0  0  0
   -7.9026   60.1408   72.5537 H   0  0  0  0  0  0  0  0  0  0  0  0
    1.4911   64.4484   70.7251 H   0  0  0  0  0  0  0  0  0  0  0  0
    2.9960   64.4422   71.7393 H   0  0  0  0  0  0  0  0  0  0  0  0
    2.3766   62.1522   69.8582 H   0  0  0  0  0  0  0  0  0  0  0  0
    3.1592   63.6784   69.2712 H   0  0  0  0  0  0  0  0  0  0  0  0
    5.4682   60.7638   70.8168 H   0  0  0  0  0  0  0  0  0  0  0  0
    5.3869   61.1082   73.1245 H   0  0  0  0  0  0  0  0  0  0  0  0
    3.8102   61.9382   73.0528 H   0  0  0  0  0  0  0  0  0  0  0  0
    1.7895   57.4827   71.4146 H   0  0  0  0  0  0  0  0  0  0  0  0
    4.1668   59.7907   75.1824 H   0  0  0  0  0  0  0  0  0  0  0  0
    2.4582   57.8803   77.8347 H   0  0  0  0  0  0  0  0  0  0  0  0
    2.3409   59.3008   76.7415 H   0  0  0  0  0  0  0  0  0  0  0  0
    1.0440   58.0579   76.7415 H   0  0  0  0  0  0  0  0  0  0  0  0
   -0.3847   56.2388   74.5153 H   0  0  0  0  0  0  0  0  0  0  0  0
   -0.0903   57.1467   72.9936 H   0  0  0  0  0  0  0  0  0  0  0  0
   -0.0334   55.3514   72.9936 H   0  0  0  0  0  0  0  0  0  0  0  0
  2  1  2  0
  3  2  1  0
  4  3  2  0
  5  4  1  0
  6  5  2  0
  6  1  1  0
  7  1  1  0
  9  8  2  0
 10  9  1  0
 11 10  2  0
 11  7  1  0
 12 11  1  0
 13 12  2  0
 13  8  1  0
 14  8  1  0
 15 14  2  0
 17 16  1  0
 17 14  1  0
 18  4  1  0
 19 18  1  0
 20 19  1  0
 21 20  2  0
 22 20  1  0
 23 22  1  0
 24 23  1  0
 25 24  2  0
 26 25  1  0
 26 22  1  0
 27 25  1  0
 28 27  2  0
 29 28  1  0
 30 29  2  0
 30 24  1  0
 31 29  1  0
 32 31  1  0
 33 28  1  0
 34 33  1  0
  2 35  1  0
  3 36  1  0
  5 37  1  0
  6 38  1  0
  7 39  1  0
  7 40  1  0
  9 41  1  0
 10 42  1  0
 12 43  1  0
 13 44  1  0
 16 45  1  0
 16 46  1  0
 16 47  1  0
 18 48  1  0
 18 49  1  0
 19 50  1  0
 19 51  1  0
 22 52  1  1
 23 53  1  0
 23 54  1  0
 27 55  1  0
 30 56  1  0
 32 57  1  0
 32 58  1  0
 32 59  1  0
 34 60  1  0
 34 61  1  0
 34 62  1  0
M  CHG  1   1   1
M  END
>  <score>  (9) 
-8.006

$$$$
