=
     RDKit          3D

 66 70  0  0  0  0  0  0  0  0999 V2000
   -1.1180   68.8360   66.9010 C   0  0  0  0  0  0  0  0  0  0  0  0
   -1.9810   67.7210   67.5000 C   0  0  0  0  0  0  0  0  0  0  0  0
   -1.2210   66.5250   68.0830 C   0  0  0  0  0  0  0  0  0  0  0  0
   -0.0020   66.8880   68.9310 C   0  0  0  0  0  0  0  0  0  0  0  0
   -0.0600   65.9120   71.5750 O   0  0  0  0  0  0  0  0  0  0  0  0
    0.5810   65.2930   70.7290 C   0  0  0  0  0  0  0  0  0  0  0  0
    0.6950   65.7220   69.4310 N   0  0  0  0  0  0  0  0  0  0  0  0
    1.2840   64.0130   71.0600 C   0  0  0  0  0  0  0  0  0  0  0  0
    2.5970   63.9610   70.7820 C   0  0  0  0  0  0  0  0  0  0  0  0
    3.3730   62.7650   71.0650 C   0  0  0  0  0  0  0  0  0  0  0  0
    4.7390   62.6810   70.7870 C   0  0  0  0  0  0  0  0  0  0  0  0
    5.4400   61.5060   71.0790 C   0  0  0  0  0  0  0  0  0  0  0  0
    4.7800   60.4140   71.6460 C   0  0  0  0  0  0  0  0  0  0  0  0
    3.4170   60.4930   71.9250 C   0  0  0  0  0  0  0  0  0  0  0  0
    2.7330   61.6690   71.6300 C   0  0  0  0  0  0  0  0  0  0  0  0
    1.3600   61.7150   71.9250 O   0  0  0  0  0  0  0  0  0  0  0  0
    0.5980   62.8490   71.6680 C   0  0  0  0  0  0  0  0  0  0  0  0
   -0.6010   62.8710   71.9410 O   0  0  0  0  0  0  0  0  0  0  0  0
   -1.0960   68.8350   65.3720 C   0  0  0  0  0  0  0  0  0  0  0  0
    0.3190   69.0600   64.8370 C   0  0  0  0  0  0  0  0  0  0  0  0
    1.2550   68.2290   65.6060 N   0  0  0  0  0  0  0  0  0  0  0  0
    2.5750   68.7730   65.5920 C   0  0  0  0  0  0  0  0  0  0  0  0
    3.3490   68.6230   64.4240 C   0  0  0  0  0  0  0  0  0  0  0  0
    2.7810   67.9620   63.1900 C   0  0  0  0  0  0  0  0  0  0  0  0
    3.5970   68.2140   61.9240 C   0  0  0  0  0  0  0  0  0  0  0  0
    5.0780   68.0010   62.1970 C   0  0  0  0  0  0  0  0  0  0  0  0
    5.5610   68.9990   63.2430 C   0  0  0  0  0  0  0  0  0  0  0  0
    4.6670   69.0770   64.4540 C   0  0  0  0  0  0  0  0  0  0  0  0
    5.2200   69.6680   65.5400 N   0  0  0  0  0  0  0  0  0  0  0  0
    4.4840   69.8120   66.6500 C   0  0  0  0  0  0  0  0  0  0  0  0
    3.1450   69.3780   66.7470 C   0  0  0  0  0  0  0  0  0  0  0  0
    2.4650   69.5690   67.9780 C   0  0  0  0  0  0  0  0  0  0  0  0
    3.0870   70.1750   69.0690 C   0  0  0  0  0  0  0  0  0  0  0  0
    4.4010   70.5990   68.9540 C   0  0  0  0  0  0  0  0  0  0  0  0
    5.0820   70.4130   67.7490 C   0  0  0  0  0  0  0  0  0  0  0  0
   -1.5131   69.8040   67.2430 H   0  0  0  0  0  0  0  0  0  0  0  0
   -0.0857   68.6638   67.2397 H   0  0  0  0  0  0  0  0  0  0  0  0
   -2.5870   68.1603   68.3060 H   0  0  0  0  0  0  0  0  0  0  0  0
   -2.5704   67.3191   66.6627 H   0  0  0  0  0  0  0  0  0  0  0  0
   -1.9172   65.9521   68.7131 H   0  0  0  0  0  0  0  0  0  0  0  0
   -0.8399   65.9534   67.2239 H   0  0  0  0  0  0  0  0  0  0  0  0
    0.6933   67.4768   68.3147 H   0  0  0  0  0  0  0  0  0  0  0  0
   -0.3588   67.4610   69.7996 H   0  0  0  0  0  0  0  0  0  0  0  0
    1.3005   65.1936   68.7867 H   0  0  0  0  0  0  0  0  0  0  0  0
    3.0918   64.8354   70.3341 H   0  0  0  0  0  0  0  0  0  0  0  0
    5.2633   63.5379   70.3389 H   0  0  0  0  0  0  0  0  0  0  0  0
    6.5163   61.4421   70.8609 H   0  0  0  0  0  0  0  0  0  0  0  0
    5.3356   59.4920   71.8723 H   0  0  0  0  0  0  0  0  0  0  0  0
    2.8889   59.6379   72.3722 H   0  0  0  0  0  0  0  0  0  0  0  0
   -1.4665   67.8650   65.0088 H   0  0  0  0  0  0  0  0  0  0  0  0
   -1.7369   69.6545   65.0148 H   0  0  0  0  0  0  0  0  0  0  0  0
    0.3615   68.7779   63.7746 H   0  0  0  0  0  0  0  0  0  0  0  0
    0.5919   70.1208   64.9382 H   0  0  0  0  0  0  0  0  0  0  0  0
    0.9917   67.3614   66.0947 H   0  0  0  0  0  0  0  0  0  0  0  0
    2.7399   66.8769   63.3657 H   0  0  0  0  0  0  0  0  0  0  0  0
    1.7859   68.3996   63.0218 H   0  0  0  0  0  0  0  0  0  0  0  0
    3.2697   67.5183   61.1373 H   0  0  0  0  0  0  0  0  0  0  0  0
    3.4398   69.2530   61.5989 H   0  0  0  0  0  0  0  0  0  0  0  0
    5.2371   66.9778   62.5682 H   0  0  0  0  0  0  0  0  0  0  0  0
    5.6434   68.1504   61.2653 H   0  0  0  0  0  0  0  0  0  0  0  0
    6.5675   68.7003   63.5713 H   0  0  0  0  0  0  0  0  0  0  0  0
    5.5554   69.9925   62.7708 H   0  0  0  0  0  0  0  0  0  0  0  0
    1.4226   69.2310   68.0737 H   0  0  0  0  0  0  0  0  0  0  0  0
    2.5393   70.3152   70.0126 H   0  0  0  0  0  0  0  0  0  0  0  0
    4.9045   71.0789   69.8061 H   0  0  0  0  0  0  0  0  0  0  0  0
    6.1249   70.7534   67.6683 H   0  0  0  0  0  0  0  0  0  0  0  0
  2  1  1  0
  3  2  1  0
  4  3  1  0
  6  5  2  0
  7  6  1  0
  7  4  1  0
  8  6  1  0
  9  8  2  0
 10  9  1  0
 11 10  2  0
 12 11  1  0
 13 12  2  0
 14 13  1  0
 15 14  2  0
 15 10  1  0
 16 15  1  0
 17 16  1  0
 17  8  1  0
 18 17  2  0
 19  1  1  0
 20 19  1  0
 21 20  1  0
 22 21  1  0
 23 22  1  0
 24 23  1  0
 25 24  1  0
 26 25  1  0
 27 26  1  0
 28 23  2  0
 28 27  1  0
 29 28  1  0
 30 29  2  0
 31 30  1  0
 31 22  2  0
 32 31  1  0
 33 32  2  0
 34 33  1  0
 35 34  2  0
 35 30  1  0
  1 36  1  0
  1 37  1  0
  2 38  1  0
  2 39  1  0
  3 40  1  0
  3 41  1  0
  4 42  1  0
  4 43  1  0
  7 44  1  0
  9 45  1  0
 11 46  1  0
 12 47  1  0
 13 48  1  0
 14 49  1  0
 19 50  1  0
 19 51  1  0
 20 52  1  0
 20 53  1  0
 21 54  1  0
 24 55  1  0
 24 56  1  0
 25 57  1  0
 25 58  1  0
 26 59  1  0
 26 60  1  0
 27 61  1  0
 27 62  1  0
 32 63  1  0
 33 64  1  0
 34 65  1  0
 35 66  1  0
M  END
>  <score>  (1) 
-12.507

$$$$
=
     RDKit          3D

 66 70  0  0  0  0  0  0  0  0999 V2000
   -1.0000   67.2590   66.8350 C   0  0  0  0  0  0  0  0  0  0  0  0
   -1.0260   66.8920   68.3210 C   0  0  0  0  0  0  0  0  0  0  0  0
    0.3320   66.8700   69.0310 C   0  0  0  0  0  0  0  0  0  0  0  0
    0.3330   66.1920   70.4010 C   0  0  0  0  0  0  0  0  0  0  0  0
    0.0390   64.1070   72.2760 O   0  0  0  0  0  0  0  0  0  0  0  0
    0.8030   63.9470   71.3260 C   0  0  0  0  0  0  0  0  0  0  0  0
    1.0350   64.9260   70.3940 N   0  0  0  0  0  0  0  0  0  0  0  0
    1.5370   62.6580   71.1190 C   0  0  0  0  0  0  0  0  0  0  0  0
    1.2340   61.6540   71.9600 C   0  0  0  0  0  0  0  0  0  0  0  0
    1.8870   60.3620   71.8450 C   0  0  0  0  0  0  0  0  0  0  0  0
    1.5950   59.3000   72.7030 C   0  0  0  0  0  0  0  0  0  0  0  0
    2.2530   58.0760   72.5500 C   0  0  0  0  0  0  0  0  0  0  0  0
    3.2060   57.9080   71.5420 C   0  0  0  0  0  0  0  0  0  0  0  0
    3.5010   58.9650   70.6820 C   0  0  0  0  0  0  0  0  0  0  0  0
    2.8370   60.1780   70.8470 C   0  0  0  0  0  0  0  0  0  0  0  0
    3.1590   61.2210   69.9630 O   0  0  0  0  0  0  0  0  0  0  0  0
    2.5440   62.4650   70.0510 C   0  0  0  0  0  0  0  0  0  0  0  0
    2.8350   63.3630   69.2620 O   0  0  0  0  0  0  0  0  0  0  0  0
   -0.9080   68.7640   66.5820 C   0  0  0  0  0  0  0  0  0  0  0  0
    0.2420   69.0990   65.6310 C   0  0  0  0  0  0  0  0  0  0  0  0
    1.3370   68.1450   65.8570 N   0  0  0  0  0  0  0  0  0  0  0  0
    2.6130   68.7750   65.7540 C   0  0  0  0  0  0  0  0  0  0  0  0
    3.2940   68.7120   64.5210 C   0  0  0  0  0  0  0  0  0  0  0  0
    2.6660   68.0520   63.3160 C   0  0  0  0  0  0  0  0  0  0  0  0
    3.3540   68.3960   61.9960 C   0  0  0  0  0  0  0  0  0  0  0  0
    4.8640   68.2720   62.1380 C   0  0  0  0  0  0  0  0  0  0  0  0
    5.3690   69.2670   63.1760 C   0  0  0  0  0  0  0  0  0  0  0  0
    4.5780   69.2500   64.4580 C   0  0  0  0  0  0  0  0  0  0  0  0
    5.1830   69.8420   65.5160 N   0  0  0  0  0  0  0  0  0  0  0  0
    4.5360   69.9040   66.6870 C   0  0  0  0  0  0  0  0  0  0  0  0
    3.2410   69.3800   66.8790 C   0  0  0  0  0  0  0  0  0  0  0  0
    2.6560   69.4880   68.1680 C   0  0  0  0  0  0  0  0  0  0  0  0
    3.3290   70.1000   69.2250 C   0  0  0  0  0  0  0  0  0  0  0  0
    4.6000   70.6130   69.0170 C   0  0  0  0  0  0  0  0  0  0  0  0
    5.1860   70.5090   67.7540 C   0  0  0  0  0  0  0  0  0  0  0  0
   -0.1285   66.7737   66.3713 H   0  0  0  0  0  0  0  0  0  0  0  0
   -1.9492   66.9142   66.3990 H   0  0  0  0  0  0  0  0  0  0  0  0
   -1.6641   67.6242   68.8375 H   0  0  0  0  0  0  0  0  0  0  0  0
   -1.4006   65.8587   68.3650 H   0  0  0  0  0  0  0  0  0  0  0  0
    1.0459   66.3370   68.3858 H   0  0  0  0  0  0  0  0  0  0  0  0
    0.6040   67.9211   69.2076 H   0  0  0  0  0  0  0  0  0  0  0  0
    0.8204   66.8613   71.1252 H   0  0  0  0  0  0  0  0  0  0  0  0
   -0.7134   65.9917   70.6749 H   0  0  0  0  0  0  0  0  0  0  0  0
    1.7366   64.7536   69.6599 H   0  0  0  0  0  0  0  0  0  0  0  0
    0.4811   61.8133   72.7460 H   0  0  0  0  0  0  0  0  0  0  0  0
    0.8470   59.4264   73.4996 H   0  0  0  0  0  0  0  0  0  0  0  0
    2.0193   57.2408   73.2267 H   0  0  0  0  0  0  0  0  0  0  0  0
    3.7225   56.9436   71.4272 H   0  0  0  0  0  0  0  0  0  0  0  0
    4.2481   58.8425   69.8840 H   0  0  0  0  0  0  0  0  0  0  0  0
   -1.8527   69.1110   66.1379 H   0  0  0  0  0  0  0  0  0  0  0  0
   -0.7214   69.2665   67.5426 H   0  0  0  0  0  0  0  0  0  0  0  0
   -0.1052   69.0234   64.5900 H   0  0  0  0  0  0  0  0  0  0  0  0
    0.5949   70.1240   65.8179 H   0  0  0  0  0  0  0  0  0  0  0  0
    1.2001   67.1454   66.0641 H   0  0  0  0  0  0  0  0  0  0  0  0
    2.7093   66.9618   63.4558 H   0  0  0  0  0  0  0  0  0  0  0  0
    1.6342   68.4270   63.2467 H   0  0  0  0  0  0  0  0  0  0  0  0
    3.0053   67.7049   61.2144 H   0  0  0  0  0  0  0  0  0  0  0  0
    3.1047   69.4319   61.7225 H   0  0  0  0  0  0  0  0  0  0  0  0
    5.1180   67.2506   62.4576 H   0  0  0  0  0  0  0  0  0  0  0  0
    5.3384   68.4862   61.1690 H   0  0  0  0  0  0  0  0  0  0  0  0
    6.4164   69.0252   63.4097 H   0  0  0  0  0  0  0  0  0  0  0  0
    5.2602   70.2717   62.7415 H   0  0  0  0  0  0  0  0  0  0  0  0
    1.6487   69.0796   68.3369 H   0  0  0  0  0  0  0  0  0  0  0  0
    2.8555   70.1750   70.2151 H   0  0  0  0  0  0  0  0  0  0  0  0
    5.1430   71.0986   69.8412 H   0  0  0  0  0  0  0  0  0  0  0  0
    6.1948   70.9195   67.5995 H   0  0  0  0  0  0  0  0  0  0  0  0
  2  1  1  0
  3  2  1  0
  4  3  1  0
  6  5  2  0
  7  6  1  0
  7  4  1  0
  8  6  1  0
  9  8  2  0
 10  9  1  0
 11 10  2  0
 12 11  1  0
 13 12  2  0
 14 13  1  0
 15 14  2  0
 15 10  1  0
 16 15  1  0
 17 16  1  0
 17  8  1  0
 18 17  2  0
 19  1  1  0
 20 19  1  0
 21 20  1  0
 22 21  1  0
 23 22  1  0
 24 23  1  0
 25 24  1  0
 26 25  1  0
 27 26  1  0
 28 23  2  0
 28 27  1  0
 29 28  1  0
 30 29  2  0
 31 30  1  0
 31 22  2  0
 32 31  1  0
 33 32  2  0
 34 33  1  0
 35 34  2  0
 35 30  1  0
  1 36  1  0
  1 37  1  0
  2 38  1  0
  2 39  1  0
  3 40  1  0
  3 41  1  0
  4 42  1  0
  4 43  1  0
  7 44  1  0
  9 45  1  0
 11 46  1  0
 12 47  1  0
 13 48  1  0
 14 49  1  0
 19 50  1  0
 19 51  1  0
 20 52  1  0
 20 53  1  0
 21 54  1  0
 24 55  1  0
 24 56  1  0
 25 57  1  0
 25 58  1  0
 26 59  1  0
 26 60  1  0
 27 61  1  0
 27 62  1  0
 32 63  1  0
 33 64  1  0
 34 65  1  0
 35 66  1  0
M  END
>  <score>  (2) 
-12.396

$$$$
=
     RDKit          3D

 66 70  0  0  0  0  0  0  0  0999 V2000
   -0.7920   67.7100   67.5860 C   0  0  0  0  0  0  0  0  0  0  0  0
   -0.9320   66.4030   68.3710 C   0  0  0  0  0  0  0  0  0  0  0  0
   -0.4060   66.4270   69.8110 C   0  0  0  0  0  0  0  0  0  0  0  0
    1.1170   66.4450   69.9400 C   0  0  0  0  0  0  0  0  0  0  0  0
    0.7300   64.4230   71.8660 O   0  0  0  0  0  0  0  0  0  0  0  0
    1.4210   64.1780   70.8790 C   0  0  0  0  0  0  0  0  0  0  0  0
    1.6930   65.1180   69.9190 N   0  0  0  0  0  0  0  0  0  0  0  0
    2.0150   62.8210   70.6570 C   0  0  0  0  0  0  0  0  0  0  0  0
    1.7470   61.8900   71.5880 C   0  0  0  0  0  0  0  0  0  0  0  0
    2.2740   60.5410   71.4660 C   0  0  0  0  0  0  0  0  0  0  0  0
    2.0150   59.5510   72.4160 C   0  0  0  0  0  0  0  0  0  0  0  0
    2.5470   58.2680   72.2520 C   0  0  0  0  0  0  0  0  0  0  0  0
    3.3400   57.9710   71.1420 C   0  0  0  0  0  0  0  0  0  0  0  0
    3.6030   58.9550   70.1900 C   0  0  0  0  0  0  0  0  0  0  0  0
    3.0650   60.2270   70.3670 C   0  0  0  0  0  0  0  0  0  0  0  0
    3.3490   61.1950   69.3890 O   0  0  0  0  0  0  0  0  0  0  0  0
    2.8520   62.4900   69.4810 C   0  0  0  0  0  0  0  0  0  0  0  0
    3.1060   63.3200   68.6090 O   0  0  0  0  0  0  0  0  0  0  0  0
    0.2080   67.6220   66.4320 C   0  0  0  0  0  0  0  0  0  0  0  0
    1.6410   67.8390   66.9210 C   0  0  0  0  0  0  0  0  0  0  0  0
    1.9880   69.2580   66.7600 N   0  0  0  0  0  0  0  0  0  0  0  0
    3.2960   69.4200   66.2140 C   0  0  0  0  0  0  0  0  0  0  0  0
    4.3110   69.9320   67.0470 C   0  0  0  0  0  0  0  0  0  0  0  0
    4.0450   70.2420   68.5010 C   0  0  0  0  0  0  0  0  0  0  0  0
    5.3120   70.4230   69.3360 C   0  0  0  0  0  0  0  0  0  0  0  0
    6.2990   71.3250   68.6100 C   0  0  0  0  0  0  0  0  0  0  0  0
    6.7210   70.6800   67.2950 C   0  0  0  0  0  0  0  0  0  0  0  0
    5.5610   70.1720   66.4770 C   0  0  0  0  0  0  0  0  0  0  0  0
    5.8420   69.9180   65.1770 N   0  0  0  0  0  0  0  0  0  0  0  0
    4.8780   69.4300   64.3860 C   0  0  0  0  0  0  0  0  0  0  0  0
    3.5700   69.1620   64.8410 C   0  0  0  0  0  0  0  0  0  0  0  0
    2.6240   68.6590   63.9100 C   0  0  0  0  0  0  0  0  0  0  0  0
    2.9650   68.4240   62.5780 C   0  0  0  0  0  0  0  0  0  0  0  0
    4.2560   68.6900   62.1490 C   0  0  0  0  0  0  0  0  0  0  0  0
    5.1940   69.1880   63.0560 C   0  0  0  0  0  0  0  0  0  0  0  0
   -1.7766   67.9766   67.1744 H   0  0  0  0  0  0  0  0  0  0  0  0
   -0.4139   68.4699   68.2857 H   0  0  0  0  0  0  0  0  0  0  0  0
   -2.0005   66.1442   68.4068 H   0  0  0  0  0  0  0  0  0  0  0  0
   -0.3098   65.6682   67.8391 H   0  0  0  0  0  0  0  0  0  0  0  0
   -0.8013   67.3273   70.3041 H   0  0  0  0  0  0  0  0  0  0  0  0
   -0.7440   65.4904   70.2784 H   0  0  0  0  0  0  0  0  0  0  0  0
    1.5346   67.0236   69.1028 H   0  0  0  0  0  0  0  0  0  0  0  0
    1.3637   66.8999   70.9107 H   0  0  0  0  0  0  0  0  0  0  0  0
    2.3335   64.8695   69.1516 H   0  0  0  0  0  0  0  0  0  0  0  0
    1.1208   62.1521   72.4535 H   0  0  0  0  0  0  0  0  0  0  0  0
    1.3925   59.7802   73.2935 H   0  0  0  0  0  0  0  0  0  0  0  0
    2.3397   57.4894   73.0009 H   0  0  0  0  0  0  0  0  0  0  0  0
    3.7573   56.9607   71.0186 H   0  0  0  0  0  0  0  0  0  0  0  0
    4.2263   58.7298   69.3121 H   0  0  0  0  0  0  0  0  0  0  0  0
    0.1342   66.6270   65.9689 H   0  0  0  0  0  0  0  0  0  0  0  0
   -0.0331   68.4094   65.7027 H   0  0  0  0  0  0  0  0  0  0  0  0
    1.7158   67.5584   67.9820 H   0  0  0  0  0  0  0  0  0  0  0  0
    2.3335   67.2167   66.3352 H   0  0  0  0  0  0  0  0  0  0  0  0
    1.3643   70.0386   67.0103 H   0  0  0  0  0  0  0  0  0  0  0  0
    3.4583   71.1708   68.5556 H   0  0  0  0  0  0  0  0  0  0  0  0
    3.5071   69.3783   68.9190 H   0  0  0  0  0  0  0  0  0  0  0  0
    5.0479   70.8777   70.3022 H   0  0  0  0  0  0  0  0  0  0  0  0
    5.7778   69.4396   69.4969 H   0  0  0  0  0  0  0  0  0  0  0  0
    5.8232   72.2952   68.4042 H   0  0  0  0  0  0  0  0  0  0  0  0
    7.1870   71.4729   69.2421 H   0  0  0  0  0  0  0  0  0  0  0  0
    7.2666   71.4270   66.6997 H   0  0  0  0  0  0  0  0  0  0  0  0
    7.3462   69.8105   67.5461 H   0  0  0  0  0  0  0  0  0  0  0  0
    1.5980   68.4496   64.2468 H   0  0  0  0  0  0  0  0  0  0  0  0
    2.2162   68.0312   61.8744 H   0  0  0  0  0  0  0  0  0  0  0  0
    4.5397   68.5101   61.1015 H   0  0  0  0  0  0  0  0  0  0  0  0
    6.2158   69.3951   62.7053 H   0  0  0  0  0  0  0  0  0  0  0  0
  2  1  1  0
  3  2  1  0
  4  3  1  0
  6  5  2  0
  7  6  1  0
  7  4  1  0
  8  6  1  0
  9  8  2  0
 10  9  1  0
 11 10  2  0
 12 11  1  0
 13 12  2  0
 14 13  1  0
 15 14  2  0
 15 10  1  0
 16 15  1  0
 17 16  1  0
 17  8  1  0
 18 17  2  0
 19  1  1  0
 20 19  1  0
 21 20  1  0
 22 21  1  0
 23 22  1  0
 24 23  1  0
 25 24  1  0
 26 25  1  0
 27 26  1  0
 28 23  2  0
 28 27  1  0
 29 28  1  0
 30 29  2  0
 31 30  1  0
 31 22  2  0
 32 31  1  0
 33 32  2  0
 34 33  1  0
 35 34  2  0
 35 30  1  0
  1 36  1  0
  1 37  1  0
  2 38  1  0
  2 39  1  0
  3 40  1  0
  3 41  1  0
  4 42  1  0
  4 43  1  0
  7 44  1  0
  9 45  1  0
 11 46  1  0
 12 47  1  0
 13 48  1  0
 14 49  1  0
 19 50  1  0
 19 51  1  0
 20 52  1  0
 20 53  1  0
 21 54  1  0
 24 55  1  0
 24 56  1  0
 25 57  1  0
 25 58  1  0
 26 59  1  0
 26 60  1  0
 27 61  1  0
 27 62  1  0
 32 63  1  0
 33 64  1  0
 34 65  1  0
 35 66  1  0
M  END
>  <score>  (3) 
-12.207

$$$$
=
     RDKit          3D

 66 70  0  0  0  0  0  0  0  0999 V2000
   -0.3270   66.8170   68.9060 C   0  0  0  0  0  0  0  0  0  0  0  0
    0.8770   66.4650   69.7860 C   0  0  0  0  0  0  0  0  0  0  0  0
    0.8830   65.0510   70.3780 C   0  0  0  0  0  0  0  0  0  0  0  0
    2.2280   64.3290   70.3040 C   0  0  0  0  0  0  0  0  0  0  0  0
    4.2640   62.6790   71.3460 O   0  0  0  0  0  0  0  0  0  0  0  0
    3.1500   62.1960   71.1510 C   0  0  0  0  0  0  0  0  0  0  0  0
    2.1190   62.9180   70.6080 N   0  0  0  0  0  0  0  0  0  0  0  0
    2.8420   60.7730   71.5010 C   0  0  0  0  0  0  0  0  0  0  0  0
    1.8450   60.5740   72.3800 C   0  0  0  0  0  0  0  0  0  0  0  0
    1.4660   59.2320   72.7850 C   0  0  0  0  0  0  0  0  0  0  0  0
    0.4340   58.9920   73.6960 C   0  0  0  0  0  0  0  0  0  0  0  0
    0.1090   57.6800   74.0550 C   0  0  0  0  0  0  0  0  0  0  0  0
    0.8120   56.6050   73.5070 C   0  0  0  0  0  0  0  0  0  0  0  0
    1.8420   56.8380   72.5980 C   0  0  0  0  0  0  0  0  0  0  0  0
    2.1540   58.1490   72.2510 C   0  0  0  0  0  0  0  0  0  0  0  0
    3.1980   58.3480   71.3310 O   0  0  0  0  0  0  0  0  0  0  0  0
    3.5750   59.6230   70.9230 C   0  0  0  0  0  0  0  0  0  0  0  0
    4.4860   59.7740   70.1110 O   0  0  0  0  0  0  0  0  0  0  0  0
    0.0600   67.4540   67.5710 C   0  0  0  0  0  0  0  0  0  0  0  0
    1.5240   67.8980   67.5710 C   0  0  0  0  0  0  0  0  0  0  0  0
    1.6300   69.1800   66.8600 N   0  0  0  0  0  0  0  0  0  0  0  0
    2.9470   69.3900   66.3510 C   0  0  0  0  0  0  0  0  0  0  0  0
    3.2070   69.0540   65.0070 C   0  0  0  0  0  0  0  0  0  0  0  0
    2.1080   68.5460   64.1030 C   0  0  0  0  0  0  0  0  0  0  0  0
    2.4610   68.5890   62.6170 C   0  0  0  0  0  0  0  0  0  0  0  0
    3.8560   68.0270   62.3880 C   0  0  0  0  0  0  0  0  0  0  0  0
    4.8860   68.8820   63.1160 C   0  0  0  0  0  0  0  0  0  0  0  0
    4.5170   69.1780   64.5460 C   0  0  0  0  0  0  0  0  0  0  0  0
    5.5340   69.6210   65.3230 N   0  0  0  0  0  0  0  0  0  0  0  0
    5.2870   69.9420   66.6000 C   0  0  0  0  0  0  0  0  0  0  0  0
    4.0070   69.8430   67.1850 C   0  0  0  0  0  0  0  0  0  0  0  0
    3.8640   70.1970   68.5520 C   0  0  0  0  0  0  0  0  0  0  0  0
    4.9490   70.6380   69.3090 C   0  0  0  0  0  0  0  0  0  0  0  0
    6.1990   70.7330   68.7160 C   0  0  0  0  0  0  0  0  0  0  0  0
    6.3520   70.3850   67.3730 C   0  0  0  0  0  0  0  0  0  0  0  0
   -0.8905   65.8947   68.7015 H   0  0  0  0  0  0  0  0  0  0  0  0
   -0.9255   67.5575   69.4569 H   0  0  0  0  0  0  0  0  0  0  0  0
    1.7852   66.5788   69.1758 H   0  0  0  0  0  0  0  0  0  0  0  0
    0.8263   67.1479   70.6469 H   0  0  0  0  0  0  0  0  0  0  0  0
    0.5910   65.1222   71.4361 H   0  0  0  0  0  0  0  0  0  0  0  0
    0.1811   64.4594   69.7719 H   0  0  0  0  0  0  0  0  0  0  0  0
    2.6322   64.4402   69.2870 H   0  0  0  0  0  0  0  0  0  0  0  0
    2.8914   64.7818   71.0556 H   0  0  0  0  0  0  0  0  0  0  0  0
    1.2305   62.4368   70.4082 H   0  0  0  0  0  0  0  0  0  0  0  0
    1.3091   61.4389   72.7981 H   0  0  0  0  0  0  0  0  0  0  0  0
   -0.1228   59.8351   74.1308 H   0  0  0  0  0  0  0  0  0  0  0  0
   -0.7040   57.4940   74.7722 H   0  0  0  0  0  0  0  0  0  0  0  0
    0.5528   55.5749   73.7928 H   0  0  0  0  0  0  0  0  0  0  0  0
    2.4007   55.9974   72.1608 H   0  0  0  0  0  0  0  0  0  0  0  0
   -0.0918   66.7197   66.7662 H   0  0  0  0  0  0  0  0  0  0  0  0
   -0.5718   68.3405   67.4130 H   0  0  0  0  0  0  0  0  0  0  0  0
    1.8734   68.0197   68.6069 H   0  0  0  0  0  0  0  0  0  0  0  0
    2.1444   67.1403   67.0700 H   0  0  0  0  0  0  0  0  0  0  0  0
    0.8512   69.8440   66.7436 H   0  0  0  0  0  0  0  0  0  0  0  0
    1.8880   67.5036   64.3769 H   0  0  0  0  0  0  0  0  0  0  0  0
    1.2434   69.2110   64.2458 H   0  0  0  0  0  0  0  0  0  0  0  0
    1.7313   67.9891   62.0534 H   0  0  0  0  0  0  0  0  0  0  0  0
    2.4360   69.6338   62.2739 H   0  0  0  0  0  0  0  0  0  0  0  0
    3.9014   66.9967   62.7706 H   0  0  0  0  0  0  0  0  0  0  0  0
    4.0766   68.0338   61.3104 H   0  0  0  0  0  0  0  0  0  0  0  0
    5.8488   68.3501   63.1076 H   0  0  0  0  0  0  0  0  0  0  0  0
    4.9379   69.8459   62.5886 H   0  0  0  0  0  0  0  0  0  0  0  0
    2.8740   70.1217   69.0255 H   0  0  0  0  0  0  0  0  0  0  0  0
    4.8146   70.9080   70.3668 H   0  0  0  0  0  0  0  0  0  0  0  0
    7.0640   71.0802   69.3001 H   0  0  0  0  0  0  0  0  0  0  0  0
    7.3478   70.4642   66.9124 H   0  0  0  0  0  0  0  0  0  0  0  0
  2  1  1  0
  3  2  1  0
  4  3  1  0
  6  5  2  0
  7  6  1  0
  7  4  1  0
  8  6  1  0
  9  8  2  0
 10  9  1  0
 11 10  2  0
 12 11  1  0
 13 12  2  0
 14 13  1  0
 15 14  2  0
 15 10  1  0
 16 15  1  0
 17 16  1  0
 17  8  1  0
 18 17  2  0
 19  1  1  0
 20 19  1  0
 21 20  1  0
 22 21  1  0
 23 22  1  0
 24 23  1  0
 25 24  1  0
 26 25  1  0
 27 26  1  0
 28 23  2  0
 28 27  1  0
 29 28  1  0
 30 29  2  0
 31 30  1  0
 31 22  2  0
 32 31  1  0
 33 32  2  0
 34 33  1  0
 35 34  2  0
 35 30  1  0
  1 36  1  0
  1 37  1  0
  2 38  1  0
  2 39  1  0
  3 40  1  0
  3 41  1  0
  4 42  1  0
  4 43  1  0
  7 44  1  0
  9 45  1  0
 11 46  1  0
 12 47  1  0
 13 48  1  0
 14 49  1  0
 19 50  1  0
 19 51  1  0
 20 52  1  0
 20 53  1  0
 21 54  1  0
 24 55  1  0
 24 56  1  0
 25 57  1  0
 25 58  1  0
 26 59  1  0
 26 60  1  0
 27 61  1  0
 27 62  1  0
 32 63  1  0
 33 64  1  0
 34 65  1  0
 35 66  1  0
M  END
>  <score>  (4) 
-12.13

$$$$
=
     RDKit          3D

 66 70  0  0  0  0  0  0  0  0999 V2000
    0.0770   65.5200   69.9150 C   0  0  0  0  0  0  0  0  0  0  0  0
    0.0620   66.8270   69.1180 C   0  0  0  0  0  0  0  0  0  0  0  0
   -0.9770   66.9140   67.9930 C   0  0  0  0  0  0  0  0  0  0  0  0
   -0.4730   67.5520   66.6990 C   0  0  0  0  0  0  0  0  0  0  0  0
    1.0660   68.7000   64.6350 O   0  0  0  0  0  0  0  0  0  0  0  0
    1.5560   68.6090   65.7580 C   0  0  0  0  0  0  0  0  0  0  0  0
    0.8900   68.0250   66.8060 N   0  0  0  0  0  0  0  0  0  0  0  0
    2.9240   69.1370   66.0630 C   0  0  0  0  0  0  0  0  0  0  0  0
    3.1510   69.5170   67.3320 C   0  0  0  0  0  0  0  0  0  0  0  0
    4.4450   70.0430   67.7320 C   0  0  0  0  0  0  0  0  0  0  0  0
    4.7120   70.4450   69.0420 C   0  0  0  0  0  0  0  0  0  0  0  0
    5.9740   70.9460   69.3760 C   0  0  0  0  0  0  0  0  0  0  0  0
    6.9720   71.0480   68.4040 C   0  0  0  0  0  0  0  0  0  0  0  0
    6.7110   70.6470   67.0950 C   0  0  0  0  0  0  0  0  0  0  0  0
    5.4490   70.1500   66.7780 C   0  0  0  0  0  0  0  0  0  0  0  0
    5.2200   69.7550   65.4490 O   0  0  0  0  0  0  0  0  0  0  0  0
    3.9920   69.2440   65.0430 C   0  0  0  0  0  0  0  0  0  0  0  0
    3.8150   68.8970   63.8770 O   0  0  0  0  0  0  0  0  0  0  0  0
   -0.0030   65.7280   71.4270 C   0  0  0  0  0  0  0  0  0  0  0  0
    0.2890   64.4300   72.1830 C   0  0  0  0  0  0  0  0  0  0  0  0
    0.1650   63.3010   71.2510 N   0  0  0  0  0  0  0  0  0  0  0  0
    0.8130   62.1320   71.7530 C   0  0  0  0  0  0  0  0  0  0  0  0
    2.1400   61.8780   71.3540 C   0  0  0  0  0  0  0  0  0  0  0  0
    2.8890   62.8480   70.4710 C   0  0  0  0  0  0  0  0  0  0  0  0
    4.4000   62.6200   70.4450 C   0  0  0  0  0  0  0  0  0  0  0  0
    4.7090   61.1420   70.2600 C   0  0  0  0  0  0  0  0  0  0  0  0
    4.1580   60.3460   71.4370 C   0  0  0  0  0  0  0  0  0  0  0  0
    2.7300   60.6870   71.7760 C   0  0  0  0  0  0  0  0  0  0  0  0
    2.0940   59.7850   72.5610 N   0  0  0  0  0  0  0  0  0  0  0  0
    0.8330   60.0270   72.9410 C   0  0  0  0  0  0  0  0  0  0  0  0
    0.1240   61.1870   72.5640 C   0  0  0  0  0  0  0  0  0  0  0  0
   -1.2140   61.3320   73.0140 C   0  0  0  0  0  0  0  0  0  0  0  0
   -1.8240   60.3660   73.8130 C   0  0  0  0  0  0  0  0  0  0  0  0
   -1.1120   59.2350   74.1770 C   0  0  0  0  0  0  0  0  0  0  0  0
    0.2050   59.0790   73.7380 C   0  0  0  0  0  0  0  0  0  0  0  0
   -0.7834   64.9108   69.6012 H   0  0  0  0  0  0  0  0  0  0  0  0
    1.0367   65.0245   69.7065 H   0  0  0  0  0  0  0  0  0  0  0  0
   -0.1342   67.6489   69.8222 H   0  0  0  0  0  0  0  0  0  0  0  0
    1.0425   66.8848   68.6227 H   0  0  0  0  0  0  0  0  0  0  0  0
   -1.3159   65.8935   67.7613 H   0  0  0  0  0  0  0  0  0  0  0  0
   -1.7809   67.5660   68.3655 H   0  0  0  0  0  0  0  0  0  0  0  0
   -0.5241   66.8039   65.8942 H   0  0  0  0  0  0  0  0  0  0  0  0
   -1.1117   68.4218   66.4856 H   0  0  0  0  0  0  0  0  0  0  0  0
    1.3805   67.9191   67.7055 H   0  0  0  0  0  0  0  0  0  0  0  0
    2.3468   69.4287   68.0773 H   0  0  0  0  0  0  0  0  0  0  0  0
    3.9297   70.3676   69.8114 H   0  0  0  0  0  0  0  0  0  0  0  0
    6.1819   71.2613   70.4091 H   0  0  0  0  0  0  0  0  0  0  0  0
    7.9627   71.4443   68.6714 H   0  0  0  0  0  0  0  0  0  0  0  0
    7.4909   70.7220   66.3229 H   0  0  0  0  0  0  0  0  0  0  0  0
    0.7339   66.4889   71.7235 H   0  0  0  0  0  0  0  0  0  0  0  0
   -1.0227   66.0547   71.6791 H   0  0  0  0  0  0  0  0  0  0  0  0
    1.3098   64.4617   72.5915 H   0  0  0  0  0  0  0  0  0  0  0  0
   -0.4252   64.3111   73.0112 H   0  0  0  0  0  0  0  0  0  0  0  0
   -0.3281   63.3471   70.3479 H   0  0  0  0  0  0  0  0  0  0  0  0
    2.5059   62.7492   69.4446 H   0  0  0  0  0  0  0  0  0  0  0  0
    2.7243   63.8526   70.8877 H   0  0  0  0  0  0  0  0  0  0  0  0
    4.8384   63.1892   69.6120 H   0  0  0  0  0  0  0  0  0  0  0  0
    4.8288   62.9579   71.4000 H   0  0  0  0  0  0  0  0  0  0  0  0
    4.2438   60.7858   69.3290 H   0  0  0  0  0  0  0  0  0  0  0  0
    5.7990   61.0035   70.2075 H   0  0  0  0  0  0  0  0  0  0  0  0
    4.2111   59.2756   71.1891 H   0  0  0  0  0  0  0  0  0  0  0  0
    4.7693   60.6011   72.3152 H   0  0  0  0  0  0  0  0  0  0  0  0
   -1.7834   62.2279   72.7255 H   0  0  0  0  0  0  0  0  0  0  0  0
   -2.8619   60.5008   74.1515 H   0  0  0  0  0  0  0  0  0  0  0  0
   -1.5804   58.4649   74.8075 H   0  0  0  0  0  0  0  0  0  0  0  0
    0.7618   58.1773   74.0328 H   0  0  0  0  0  0  0  0  0  0  0  0
  2  1  1  0
  3  2  1  0
  4  3  1  0
  6  5  2  0
  7  6  1  0
  7  4  1  0
  8  6  1  0
  9  8  2  0
 10  9  1  0
 11 10  2  0
 12 11  1  0
 13 12  2  0
 14 13  1  0
 15 14  2  0
 15 10  1  0
 16 15  1  0
 17 16  1  0
 17  8  1  0
 18 17  2  0
 19  1  1  0
 20 19  1  0
 21 20  1  0
 22 21  1  0
 23 22  1  0
 24 23  1  0
 25 24  1  0
 26 25  1  0
 27 26  1  0
 28 23  2  0
 28 27  1  0
 29 28  1  0
 30 29  2  0
 31 30  1  0
 31 22  2  0
 32 31  1  0
 33 32  2  0
 34 33  1  0
 35 34  2  0
 35 30  1  0
  1 36  1  0
  1 37  1  0
  2 38  1  0
  2 39  1  0
  3 40  1  0
  3 41  1  0
  4 42  1  0
  4 43  1  0
  7 44  1  0
  9 45  1  0
 11 46  1  0
 12 47  1  0
 13 48  1  0
 14 49  1  0
 19 50  1  0
 19 51  1  0
 20 52  1  0
 20 53  1  0
 21 54  1  0
 24 55  1  0
 24 56  1  0
 25 57  1  0
 25 58  1  0
 26 59  1  0
 26 60  1  0
 27 61  1  0
 27 62  1  0
 32 63  1  0
 33 64  1  0
 34 65  1  0
 35 66  1  0
M  END
>  <score>  (5) 
-12.035

$$$$
=
     RDKit          3D

 66 70  0  0  0  0  0  0  0  0999 V2000
   -0.0370   65.3240   70.0340 C   0  0  0  0  0  0  0  0  0  0  0  0
   -0.1800   66.5770   69.1650 C   0  0  0  0  0  0  0  0  0  0  0  0
   -1.3660   66.5870   68.1940 C   0  0  0  0  0  0  0  0  0  0  0  0
   -1.1530   67.4130   66.9250 C   0  0  0  0  0  0  0  0  0  0  0  0
   -0.1050   69.9160   67.6900 O   0  0  0  0  0  0  0  0  0  0  0  0
    0.6540   69.0780   67.2080 C   0  0  0  0  0  0  0  0  0  0  0  0
    0.2170   67.8530   66.7720 N   0  0  0  0  0  0  0  0  0  0  0  0
    2.1220   69.3390   67.0670 C   0  0  0  0  0  0  0  0  0  0  0  0
    2.7530   69.8160   68.1540 C   0  0  0  0  0  0  0  0  0  0  0  0
    4.1770   70.1020   68.1230 C   0  0  0  0  0  0  0  0  0  0  0  0
    4.8600   70.5990   69.2350 C   0  0  0  0  0  0  0  0  0  0  0  0
    6.2320   70.8590   69.1530 C   0  0  0  0  0  0  0  0  0  0  0  0
    6.9240   70.6260   67.9630 C   0  0  0  0  0  0  0  0  0  0  0  0
    6.2470   70.1300   66.8500 C   0  0  0  0  0  0  0  0  0  0  0  0
    4.8810   69.8760   66.9480 C   0  0  0  0  0  0  0  0  0  0  0  0
    4.2300   69.3770   65.8070 O   0  0  0  0  0  0  0  0  0  0  0  0
    2.8690   69.0900   65.8130 C   0  0  0  0  0  0  0  0  0  0  0  0
    2.3200   68.6470   64.8060 O   0  0  0  0  0  0  0  0  0  0  0  0
    0.2800   65.6310   71.4980 C   0  0  0  0  0  0  0  0  0  0  0  0
    0.2050   64.3690   72.3590 C   0  0  0  0  0  0  0  0  0  0  0  0
    0.1700   63.1950   71.4770 N   0  0  0  0  0  0  0  0  0  0  0  0
    1.0950   62.1930   71.9000 C   0  0  0  0  0  0  0  0  0  0  0  0
    0.6290   61.1620   72.7400 C   0  0  0  0  0  0  0  0  0  0  0  0
   -0.8260   61.0760   73.1360 C   0  0  0  0  0  0  0  0  0  0  0  0
   -1.2270   59.7230   73.7220 C   0  0  0  0  0  0  0  0  0  0  0  0
   -0.2060   59.2700   74.7540 C   0  0  0  0  0  0  0  0  0  0  0  0
    1.1540   59.0820   74.0920 C   0  0  0  0  0  0  0  0  0  0  0  0
    1.5610   60.2430   73.2200 C   0  0  0  0  0  0  0  0  0  0  0  0
    2.8760   60.2870   72.8990 N   0  0  0  0  0  0  0  0  0  0  0  0
    3.3180   61.2660   72.0990 C   0  0  0  0  0  0  0  0  0  0  0  0
    2.4770   62.2640   71.5650 C   0  0  0  0  0  0  0  0  0  0  0  0
    3.0580   63.2610   70.7390 C   0  0  0  0  0  0  0  0  0  0  0  0
    4.4210   63.2640   70.4480 C   0  0  0  0  0  0  0  0  0  0  0  0
    5.2330   62.2740   70.9790 C   0  0  0  0  0  0  0  0  0  0  0  0
    4.6730   61.2890   71.7950 C   0  0  0  0  0  0  0  0  0  0  0  0
   -0.9815   64.7617   69.9926 H   0  0  0  0  0  0  0  0  0  0  0  0
    0.8095   64.7469   69.6334 H   0  0  0  0  0  0  0  0  0  0  0  0
   -0.2866   67.4421   69.8360 H   0  0  0  0  0  0  0  0  0  0  0  0
    0.7209   66.6062   68.5345 H   0  0  0  0  0  0  0  0  0  0  0  0
   -1.5715   65.5485   67.8951 H   0  0  0  0  0  0  0  0  0  0  0  0
   -2.2011   67.0589   68.7324 H   0  0  0  0  0  0  0  0  0  0  0  0
   -1.4251   66.7982   66.0544 H   0  0  0  0  0  0  0  0  0  0  0  0
   -1.7850   68.3101   67.0009 H   0  0  0  0  0  0  0  0  0  0  0  0
    0.8913   67.2209   66.3174 H   0  0  0  0  0  0  0  0  0  0  0  0
    2.1838   69.9920   69.0787 H   0  0  0  0  0  0  0  0  0  0  0  0
    4.3195   70.7859   70.1747 H   0  0  0  0  0  0  0  0  0  0  0  0
    6.7684   71.2490   70.0306 H   0  0  0  0  0  0  0  0  0  0  0  0
    8.0026   70.8337   67.9038 H   0  0  0  0  0  0  0  0  0  0  0  0
    6.7836   69.9420   65.9083 H   0  0  0  0  0  0  0  0  0  0  0  0
    1.2947   66.0505   71.5646 H   0  0  0  0  0  0  0  0  0  0  0  0
   -0.4637   66.3506   71.8709 H   0  0  0  0  0  0  0  0  0  0  0  0
    1.0883   64.3143   73.0123 H   0  0  0  0  0  0  0  0  0  0  0  0
   -0.7011   64.3952   72.9821 H   0  0  0  0  0  0  0  0  0  0  0  0
   -0.4452   63.1057   70.6557 H   0  0  0  0  0  0  0  0  0  0  0  0
   -1.0272   61.8530   73.8882 H   0  0  0  0  0  0  0  0  0  0  0  0
   -1.4164   61.2152   72.2184 H   0  0  0  0  0  0  0  0  0  0  0  0
   -2.2125   59.8135   74.2023 H   0  0  0  0  0  0  0  0  0  0  0  0
   -1.2690   58.9808   72.9112 H   0  0  0  0  0  0  0  0  0  0  0  0
   -0.1246   60.0306   75.5445 H   0  0  0  0  0  0  0  0  0  0  0  0
   -0.5316   58.3138   75.1894 H   0  0  0  0  0  0  0  0  0  0  0  0
    1.9110   58.9556   74.8801 H   0  0  0  0  0  0  0  0  0  0  0  0
    1.0793   58.1979   73.4418 H   0  0  0  0  0  0  0  0  0  0  0  0
    2.4174   64.0502   70.3184 H   0  0  0  0  0  0  0  0  0  0  0  0
    4.8487   64.0453   69.8025 H   0  0  0  0  0  0  0  0  0  0  0  0
    6.3108   62.2644   70.7591 H   0  0  0  0  0  0  0  0  0  0  0  0
    5.3255   60.5067   72.2101 H   0  0  0  0  0  0  0  0  0  0  0  0
  2  1  1  0
  3  2  1  0
  4  3  1  0
  6  5  2  0
  7  6  1  0
  7  4  1  0
  8  6  1  0
  9  8  2  0
 10  9  1  0
 11 10  2  0
 12 11  1  0
 13 12  2  0
 14 13  1  0
 15 14  2  0
 15 10  1  0
 16 15  1  0
 17 16  1  0
 17  8  1  0
 18 17  2  0
 19  1  1  0
 20 19  1  0
 21 20  1  0
 22 21  1  0
 23 22  1  0
 24 23  1  0
 25 24  1  0
 26 25  1  0
 27 26  1  0
 28 23  2  0
 28 27  1  0
 29 28  1  0
 30 29  2  0
 31 30  1  0
 31 22  2  0
 32 31  1  0
 33 32  2  0
 34 33  1  0
 35 34  2  0
 35 30  1  0
  1 36  1  0
  1 37  1  0
  2 38  1  0
  2 39  1  0
  3 40  1  0
  3 41  1  0
  4 42  1  0
  4 43  1  0
  7 44  1  0
  9 45  1  0
 11 46  1  0
 12 47  1  0
 13 48  1  0
 14 49  1  0
 19 50  1  0
 19 51  1  0
 20 52  1  0
 20 53  1  0
 21 54  1  0
 24 55  1  0
 24 56  1  0
 25 57  1  0
 25 58  1  0
 26 59  1  0
 26 60  1  0
 27 61  1  0
 27 62  1  0
 32 63  1  0
 33 64  1  0
 34 65  1  0
 35 66  1  0
M  END
>  <score>  (6) 
-11.943

$$$$
=
     RDKit          3D

 66 70  0  0  0  0  0  0  0  0999 V2000
    4.6260   65.4070   64.1170 C   0  0  0  0  0  0  0  0  0  0  0  0
    3.3620   64.6930   64.6060 C   0  0  0  0  0  0  0  0  0  0  0  0
    3.5880   63.4580   65.4850 C   0  0  0  0  0  0  0  0  0  0  0  0
    4.1210   63.7530   66.8870 C   0  0  0  0  0  0  0  0  0  0  0  0
    4.9600   63.4630   69.5630 O   0  0  0  0  0  0  0  0  0  0  0  0
    3.9310   62.8980   69.2000 C   0  0  0  0  0  0  0  0  0  0  0  0
    3.4770   62.9540   67.9070 N   0  0  0  0  0  0  0  0  0  0  0  0
    3.0930   62.1060   70.1550 C   0  0  0  0  0  0  0  0  0  0  0  0
    1.9660   62.6930   70.5930 C   0  0  0  0  0  0  0  0  0  0  0  0
    1.0820   62.0100   71.5220 C   0  0  0  0  0  0  0  0  0  0  0  0
   -0.0950   62.5940   71.9960 C   0  0  0  0  0  0  0  0  0  0  0  0
   -0.9110   61.8940   72.8900 C   0  0  0  0  0  0  0  0  0  0  0  0
   -0.5550   60.6130   73.3150 C   0  0  0  0  0  0  0  0  0  0  0  0
    0.6190   60.0250   72.8460 C   0  0  0  0  0  0  0  0  0  0  0  0
    1.4210   60.7350   71.9560 C   0  0  0  0  0  0  0  0  0  0  0  0
    2.5970   60.1130   71.5020 O   0  0  0  0  0  0  0  0  0  0  0  0
    3.4560   60.7440   70.6090 C   0  0  0  0  0  0  0  0  0  0  0  0
    4.4760   60.1790   70.2190 O   0  0  0  0  0  0  0  0  0  0  0  0
    4.3540   66.7900   63.5260 C   0  0  0  0  0  0  0  0  0  0  0  0
    5.1350   67.8750   64.2680 C   0  0  0  0  0  0  0  0  0  0  0  0
    4.2930   69.0740   64.3800 N   0  0  0  0  0  0  0  0  0  0  0  0
    3.8390   69.2750   65.7180 C   0  0  0  0  0  0  0  0  0  0  0  0
    2.4940   68.9800   66.0190 C   0  0  0  0  0  0  0  0  0  0  0  0
    1.5680   68.4030   64.9750 C   0  0  0  0  0  0  0  0  0  0  0  0
    0.2870   67.8010   65.5500 C   0  0  0  0  0  0  0  0  0  0  0  0
   -0.3300   68.7460   66.5690 C   0  0  0  0  0  0  0  0  0  0  0  0
    0.6290   68.9490   67.7360 C   0  0  0  0  0  0  0  0  0  0  0  0
    2.0380   69.2660   67.3060 C   0  0  0  0  0  0  0  0  0  0  0  0
    2.8300   69.7910   68.2700 N   0  0  0  0  0  0  0  0  0  0  0  0
    4.1080   70.0710   67.9840 C   0  0  0  0  0  0  0  0  0  0  0  0
    4.6810   69.8410   66.7150 C   0  0  0  0  0  0  0  0  0  0  0  0
    6.0430   70.1890   66.5210 C   0  0  0  0  0  0  0  0  0  0  0  0
    6.8100   70.7370   67.5480 C   0  0  0  0  0  0  0  0  0  0  0  0
    6.2320   70.9510   68.7890 C   0  0  0  0  0  0  0  0  0  0  0  0
    4.8920   70.6160   68.9920 C   0  0  0  0  0  0  0  0  0  0  0  0
    5.3131   65.5210   64.9684 H   0  0  0  0  0  0  0  0  0  0  0  0
    5.0561   64.7905   63.3140 H   0  0  0  0  0  0  0  0  0  0  0  0
    2.7698   65.4159   65.1864 H   0  0  0  0  0  0  0  0  0  0  0  0
    2.8587   64.3251   63.6997 H   0  0  0  0  0  0  0  0  0  0  0  0
    2.6274   62.9322   65.5886 H   0  0  0  0  0  0  0  0  0  0  0  0
    4.3610   62.8590   64.9814 H   0  0  0  0  0  0  0  0  0  0  0  0
    5.2007   63.5433   66.9047 H   0  0  0  0  0  0  0  0  0  0  0  0
    3.9091   64.8094   67.1084 H   0  0  0  0  0  0  0  0  0  0  0  0
    2.6438   62.4050   67.6517 H   0  0  0  0  0  0  0  0  0  0  0  0
    1.7095   63.7040   70.2435 H   0  0  0  0  0  0  0  0  0  0  0  0
   -0.3798   63.6040   71.6662 H   0  0  0  0  0  0  0  0  0  0  0  0
   -1.8384   62.3553   73.2603 H   0  0  0  0  0  0  0  0  0  0  0  0
   -1.2003   60.0677   74.0195 H   0  0  0  0  0  0  0  0  0  0  0  0
    0.9074   59.0154   73.1740 H   0  0  0  0  0  0  0  0  0  0  0  0
    4.6542   66.7927   62.4678 H   0  0  0  0  0  0  0  0  0  0  0  0
    3.2800   67.0053   63.6266 H   0  0  0  0  0  0  0  0  0  0  0  0
    5.4022   67.5160   65.2729 H   0  0  0  0  0  0  0  0  0  0  0  0
    6.0554   68.1158   63.7159 H   0  0  0  0  0  0  0  0  0  0  0  0
    4.0593   69.6929   63.5905 H   0  0  0  0  0  0  0  0  0  0  0  0
    1.2903   69.2059   64.2763 H   0  0  0  0  0  0  0  0  0  0  0  0
    2.1127   67.5844   64.4818 H   0  0  0  0  0  0  0  0  0  0  0  0
   -0.4306   67.6283   64.7344 H   0  0  0  0  0  0  0  0  0  0  0  0
    0.5303   66.8498   66.0460 H   0  0  0  0  0  0  0  0  0  0  0  0
   -0.5331   69.7157   66.0910 H   0  0  0  0  0  0  0  0  0  0  0  0
   -1.2689   68.3119   66.9433 H   0  0  0  0  0  0  0  0  0  0  0  0
    0.2571   69.7810   68.3520 H   0  0  0  0  0  0  0  0  0  0  0  0
    0.6657   68.0018   68.2941 H   0  0  0  0  0  0  0  0  0  0  0  0
    6.5046   70.0223   65.5366 H   0  0  0  0  0  0  0  0  0  0  0  0
    7.8646   70.9972   67.3747 H   0  0  0  0  0  0  0  0  0  0  0  0
    6.8252   71.3821   69.6090 H   0  0  0  0  0  0  0  0  0  0  0  0
    4.4434   70.7892   69.9813 H   0  0  0  0  0  0  0  0  0  0  0  0
  2  1  1  0
  3  2  1  0
  4  3  1  0
  6  5  2  0
  7  6  1  0
  7  4  1  0
  8  6  1  0
  9  8  2  0
 10  9  1  0
 11 10  2  0
 12 11  1  0
 13 12  2  0
 14 13  1  0
 15 14  2  0
 15 10  1  0
 16 15  1  0
 17 16  1  0
 17  8  1  0
 18 17  2  0
 19  1  1  0
 20 19  1  0
 21 20  1  0
 22 21  1  0
 23 22  1  0
 24 23  1  0
 25 24  1  0
 26 25  1  0
 27 26  1  0
 28 23  2  0
 28 27  1  0
 29 28  1  0
 30 29  2  0
 31 30  1  0
 31 22  2  0
 32 31  1  0
 33 32  2  0
 34 33  1  0
 35 34  2  0
 35 30  1  0
  1 36  1  0
  1 37  1  0
  2 38  1  0
  2 39  1  0
  3 40  1  0
  3 41  1  0
  4 42  1  0
  4 43  1  0
  7 44  1  0
  9 45  1  0
 11 46  1  0
 12 47  1  0
 13 48  1  0
 14 49  1  0
 19 50  1  0
 19 51  1  0
 20 52  1  0
 20 53  1  0
 21 54  1  0
 24 55  1  0
 24 56  1  0
 25 57  1  0
 25 58  1  0
 26 59  1  0
 26 60  1  0
 27 61  1  0
 27 62  1  0
 32 63  1  0
 33 64  1  0
 34 65  1  0
 35 66  1  0
M  END
>  <score>  (7) 
-11.83

$$$$
=
     RDKit          3D

 66 70  0  0  0  0  0  0  0  0999 V2000
    1.3240   66.7630   69.4430 C   0  0  0  0  0  0  0  0  0  0  0  0
    0.3590   66.0990   70.4300 C   0  0  0  0  0  0  0  0  0  0  0  0
    0.4340   64.5700   70.5140 C   0  0  0  0  0  0  0  0  0  0  0  0
    1.8410   64.0040   70.6990 C   0  0  0  0  0  0  0  0  0  0  0  0
    2.6170   62.8180   73.1360 O   0  0  0  0  0  0  0  0  0  0  0  0
    2.1940   62.0970   72.2350 C   0  0  0  0  0  0  0  0  0  0  0  0
    1.8360   62.5890   71.0060 N   0  0  0  0  0  0  0  0  0  0  0  0
    2.0350   60.6200   72.4210 C   0  0  0  0  0  0  0  0  0  0  0  0
    0.9340   60.2130   73.0760 C   0  0  0  0  0  0  0  0  0  0  0  0
    0.6850   58.8010   73.3090 C   0  0  0  0  0  0  0  0  0  0  0  0
   -0.4490   58.3470   73.9860 C   0  0  0  0  0  0  0  0  0  0  0  0
   -0.6420   56.9760   74.1860 C   0  0  0  0  0  0  0  0  0  0  0  0
    0.2950   56.0560   73.7120 C   0  0  0  0  0  0  0  0  0  0  0  0
    1.4290   56.5040   73.0360 C   0  0  0  0  0  0  0  0  0  0  0  0
    1.6070   57.8710   72.8450 C   0  0  0  0  0  0  0  0  0  0  0  0
    2.7600   58.2880   72.1590 O   0  0  0  0  0  0  0  0  0  0  0  0
    3.0180   59.6330   71.9190 C   0  0  0  0  0  0  0  0  0  0  0  0
    4.0300   59.9760   71.3100 O   0  0  0  0  0  0  0  0  0  0  0  0
    0.6200   67.5750   68.3550 C   0  0  0  0  0  0  0  0  0  0  0  0
    1.4740   67.6670   67.0900 C   0  0  0  0  0  0  0  0  0  0  0  0
    1.7180   69.0830   66.7840 N   0  0  0  0  0  0  0  0  0  0  0  0
    3.0350   69.2920   66.2760 C   0  0  0  0  0  0  0  0  0  0  0  0
    4.0060   69.8420   67.1360 C   0  0  0  0  0  0  0  0  0  0  0  0
    3.6870   70.1450   68.5810 C   0  0  0  0  0  0  0  0  0  0  0  0
    4.9220   70.3740   69.4510 C   0  0  0  0  0  0  0  0  0  0  0  0
    5.8960   71.3100   68.7520 C   0  0  0  0  0  0  0  0  0  0  0  0
    6.3780   70.6780   67.4520 C   0  0  0  0  0  0  0  0  0  0  0  0
    5.2620   70.1270   66.6020 C   0  0  0  0  0  0  0  0  0  0  0  0
    5.5900   69.8800   65.3120 N   0  0  0  0  0  0  0  0  0  0  0  0
    4.6670   69.3560   64.4940 C   0  0  0  0  0  0  0  0  0  0  0  0
    3.3570   69.0410   64.9120 C   0  0  0  0  0  0  0  0  0  0  0  0
    2.4580   68.5010   63.9560 C   0  0  0  0  0  0  0  0  0  0  0  0
    2.8460   68.2770   62.6360 C   0  0  0  0  0  0  0  0  0  0  0  0
    4.1380   68.5880   62.2430 C   0  0  0  0  0  0  0  0  0  0  0  0
    5.0310   69.1220   63.1750 C   0  0  0  0  0  0  0  0  0  0  0  0
    1.9884   67.4360   70.0049 H   0  0  0  0  0  0  0  0  0  0  0  0
    1.8768   65.9568   68.9387 H   0  0  0  0  0  0  0  0  0  0  0  0
    0.5706   66.5023   71.4313 H   0  0  0  0  0  0  0  0  0  0  0  0
   -0.6508   66.3275   70.0584 H   0  0  0  0  0  0  0  0  0  0  0  0
   -0.1802   64.2441   71.3664 H   0  0  0  0  0  0  0  0  0  0  0  0
    0.0734   64.1899   69.5468 H   0  0  0  0  0  0  0  0  0  0  0  0
    2.4088   64.1610   69.7701 H   0  0  0  0  0  0  0  0  0  0  0  0
    2.3017   64.5278   71.5495 H   0  0  0  0  0  0  0  0  0  0  0  0
    1.5520   61.9250   70.2715 H   0  0  0  0  0  0  0  0  0  0  0  0
    0.2122   60.9589   73.4403 H   0  0  0  0  0  0  0  0  0  0  0  0
   -1.1904   59.0674   74.3619 H   0  0  0  0  0  0  0  0  0  0  0  0
   -1.5363   56.6211   74.7193 H   0  0  0  0  0  0  0  0  0  0  0  0
    0.1387   54.9789   73.8717 H   0  0  0  0  0  0  0  0  0  0  0  0
    2.1729   55.7868   72.6588 H   0  0  0  0  0  0  0  0  0  0  0  0
   -0.3357   67.0898   68.1076 H   0  0  0  0  0  0  0  0  0  0  0  0
    0.4524   68.5934   68.7355 H   0  0  0  0  0  0  0  0  0  0  0  0
    2.4331   67.1537   67.2535 H   0  0  0  0  0  0  0  0  0  0  0  0
    0.9493   67.1886   66.2499 H   0  0  0  0  0  0  0  0  0  0  0  0
    1.0243   69.8322   66.9194 H   0  0  0  0  0  0  0  0  0  0  0  0
    3.0653   71.0518   68.6160 H   0  0  0  0  0  0  0  0  0  0  0  0
    3.1691   69.2631   68.9862 H   0  0  0  0  0  0  0  0  0  0  0  0
    4.6137   70.8203   70.4079 H   0  0  0  0  0  0  0  0  0  0  0  0
    5.4187   69.4085   69.6272 H   0  0  0  0  0  0  0  0  0  0  0  0
    5.3917   72.2621   68.5300 H   0  0  0  0  0  0  0  0  0  0  0  0
    6.7594   71.4917   69.4090 H   0  0  0  0  0  0  0  0  0  0  0  0
    6.9136   71.4429   66.8705 H   0  0  0  0  0  0  0  0  0  0  0  0
    7.0258   69.8317   67.7241 H   0  0  0  0  0  0  0  0  0  0  0  0
    1.4313   68.2535   64.2637 H   0  0  0  0  0  0  0  0  0  0  0  0
    2.1323   67.8567   61.9121 H   0  0  0  0  0  0  0  0  0  0  0  0
    4.4580   68.4156   61.2048 H   0  0  0  0  0  0  0  0  0  0  0  0
    6.0547   69.3647   62.8537 H   0  0  0  0  0  0  0  0  0  0  0  0
  2  1  1  0
  3  2  1  0
  4  3  1  0
  6  5  2  0
  7  6  1  0
  7  4  1  0
  8  6  1  0
  9  8  2  0
 10  9  1  0
 11 10  2  0
 12 11  1  0
 13 12  2  0
 14 13  1  0
 15 14  2  0
 15 10  1  0
 16 15  1  0
 17 16  1  0
 17  8  1  0
 18 17  2  0
 19  1  1  0
 20 19  1  0
 21 20  1  0
 22 21  1  0
 23 22  1  0
 24 23  1  0
 25 24  1  0
 26 25  1  0
 27 26  1  0
 28 23  2  0
 28 27  1  0
 29 28  1  0
 30 29  2  0
 31 30  1  0
 31 22  2  0
 32 31  1  0
 33 32  2  0
 34 33  1  0
 35 34  2  0
 35 30  1  0
  1 36  1  0
  1 37  1  0
  2 38  1  0
  2 39  1  0
  3 40  1  0
  3 41  1  0
  4 42  1  0
  4 43  1  0
  7 44  1  0
  9 45  1  0
 11 46  1  0
 12 47  1  0
 13 48  1  0
 14 49  1  0
 19 50  1  0
 19 51  1  0
 20 52  1  0
 20 53  1  0
 21 54  1  0
 24 55  1  0
 24 56  1  0
 25 57  1  0
 25 58  1  0
 26 59  1  0
 26 60  1  0
 27 61  1  0
 27 62  1  0
 32 63  1  0
 33 64  1  0
 34 65  1  0
 35 66  1  0
M  END
>  <score>  (8) 
-11.759

$$$$
=
     RDKit          3D

 66 70  0  0  0  0  0  0  0  0999 V2000
    1.1520   66.4620   70.1600 C   0  0  0  0  0  0  0  0  0  0  0  0
    0.5220   66.8450   68.8180 C   0  0  0  0  0  0  0  0  0  0  0  0
   -0.9880   66.6100   68.6950 C   0  0  0  0  0  0  0  0  0  0  0  0
   -1.5730   66.8900   67.3110 C   0  0  0  0  0  0  0  0  0  0  0  0
   -1.1520   69.2980   65.9050 O   0  0  0  0  0  0  0  0  0  0  0  0
   -0.3920   68.3530   65.7040 C   0  0  0  0  0  0  0  0  0  0  0  0
   -0.5520   67.1360   66.3150 N   0  0  0  0  0  0  0  0  0  0  0  0
    0.7750   68.4720   64.7730 C   0  0  0  0  0  0  0  0  0  0  0  0
    1.9630   68.7560   65.3340 C   0  0  0  0  0  0  0  0  0  0  0  0
    3.1580   68.8920   64.5200 C   0  0  0  0  0  0  0  0  0  0  0  0
    4.4060   69.1870   65.0730 C   0  0  0  0  0  0  0  0  0  0  0  0
    5.5270   69.3080   64.2440 C   0  0  0  0  0  0  0  0  0  0  0  0
    5.4050   69.1360   62.8640 C   0  0  0  0  0  0  0  0  0  0  0  0
    4.1620   68.8410   62.3070 C   0  0  0  0  0  0  0  0  0  0  0  0
    3.0560   68.7240   63.1450 C   0  0  0  0  0  0  0  0  0  0  0  0
    1.8180   68.4260   62.5500 O   0  0  0  0  0  0  0  0  0  0  0  0
    0.6610   68.2860   63.3090 C   0  0  0  0  0  0  0  0  0  0  0  0
   -0.4110   68.0170   62.7690 O   0  0  0  0  0  0  0  0  0  0  0  0
    0.2150   65.6620   71.0660 C   0  0  0  0  0  0  0  0  0  0  0  0
    0.5400   64.1680   71.0220 C   0  0  0  0  0  0  0  0  0  0  0  0
    1.9750   63.9880   71.2840 N   0  0  0  0  0  0  0  0  0  0  0  0
    2.2350   62.7560   71.9580 C   0  0  0  0  0  0  0  0  0  0  0  0
    2.7870   61.6920   71.2180 C   0  0  0  0  0  0  0  0  0  0  0  0
    3.1590   61.8620   69.7640 C   0  0  0  0  0  0  0  0  0  0  0  0
    4.0730   60.7610   69.2280 C   0  0  0  0  0  0  0  0  0  0  0  0
    3.5570   59.3930   69.6500 C   0  0  0  0  0  0  0  0  0  0  0  0
    3.5710   59.2810   71.1700 C   0  0  0  0  0  0  0  0  0  0  0  0
    2.9510   60.4670   71.8640 C   0  0  0  0  0  0  0  0  0  0  0  0
    2.6240   60.2670   73.1630 N   0  0  0  0  0  0  0  0  0  0  0  0
    2.1000   61.2790   73.8660 C   0  0  0  0  0  0  0  0  0  0  0  0
    1.8700   62.5590   73.3200 C   0  0  0  0  0  0  0  0  0  0  0  0
    1.2970   63.5530   74.1550 C   0  0  0  0  0  0  0  0  0  0  0  0
    0.9700   63.2890   75.4840 C   0  0  0  0  0  0  0  0  0  0  0  0
    1.2060   62.0270   76.0060 C   0  0  0  0  0  0  0  0  0  0  0  0
    1.7670   61.0400   75.1930 C   0  0  0  0  0  0  0  0  0  0  0  0
    2.0485   65.8556   69.9636 H   0  0  0  0  0  0  0  0  0  0  0  0
    1.3896   67.3986   70.6856 H   0  0  0  0  0  0  0  0  0  0  0  0
    0.7111   67.9156   68.6504 H   0  0  0  0  0  0  0  0  0  0  0  0
    0.9875   66.1845   68.0717 H   0  0  0  0  0  0  0  0  0  0  0  0
   -1.1915   65.5584   68.9455 H   0  0  0  0  0  0  0  0  0  0  0  0
   -1.4677   67.3224   69.3822 H   0  0  0  0  0  0  0  0  0  0  0  0
   -2.1687   66.0200   66.9976 H   0  0  0  0  0  0  0  0  0  0  0  0
   -2.1899   67.7975   67.3872 H   0  0  0  0  0  0  0  0  0  0  0  0
    0.0801   66.3655   66.0546 H   0  0  0  0  0  0  0  0  0  0  0  0
    2.0310   68.8871   66.4240 H   0  0  0  0  0  0  0  0  0  0  0  0
    4.5078   69.3242   66.1597 H   0  0  0  0  0  0  0  0  0  0  0  0
    6.5091   69.5398   64.6819 H   0  0  0  0  0  0  0  0  0  0  0  0
    6.2892   69.2332   62.2168 H   0  0  0  0  0  0  0  0  0  0  0  0
    4.0561   68.7026   61.2209 H   0  0  0  0  0  0  0  0  0  0  0  0
    0.3229   66.0218   72.0999 H   0  0  0  0  0  0  0  0  0  0  0  0
   -0.8162   65.8034   70.7100 H   0  0  0  0  0  0  0  0  0  0  0  0
   -0.0451   63.6395   71.7891 H   0  0  0  0  0  0  0  0  0  0  0  0
    0.2863   63.7591   70.0328 H   0  0  0  0  0  0  0  0  0  0  0  0
    2.7024   64.6658   71.0151 H   0  0  0  0  0  0  0  0  0  0  0  0
    2.2346   61.8661   69.1678 H   0  0  0  0  0  0  0  0  0  0  0  0
    3.7158   62.8073   69.6844 H   0  0  0  0  0  0  0  0  0  0  0  0
    4.1006   60.8152   68.1297 H   0  0  0  0  0  0  0  0  0  0  0  0
    5.0835   60.9040   69.6383 H   0  0  0  0  0  0  0  0  0  0  0  0
    2.5280   59.2622   69.2839 H   0  0  0  0  0  0  0  0  0  0  0  0
    4.2049   58.6134   69.2229 H   0  0  0  0  0  0  0  0  0  0  0  0
    3.0132   58.3777   71.4581 H   0  0  0  0  0  0  0  0  0  0  0  0
    4.6248   59.2366   71.4824 H   0  0  0  0  0  0  0  0  0  0  0  0
    1.1064   64.5553   73.7439 H   0  0  0  0  0  0  0  0  0  0  0  0
    0.5283   64.0757   76.1133 H   0  0  0  0  0  0  0  0  0  0  0  0
    0.9532   61.8045   77.0532 H   0  0  0  0  0  0  0  0  0  0  0  0
    1.9510   60.0418   75.6169 H   0  0  0  0  0  0  0  0  0  0  0  0
  2  1  1  0
  3  2  1  0
  4  3  1  0
  6  5  2  0
  7  6  1  0
  7  4  1  0
  8  6  1  0
  9  8  2  0
 10  9  1  0
 11 10  2  0
 12 11  1  0
 13 12  2  0
 14 13  1  0
 15 14  2  0
 15 10  1  0
 16 15  1  0
 17 16  1  0
 17  8  1  0
 18 17  2  0
 19  1  1  0
 20 19  1  0
 21 20  1  0
 22 21  1  0
 23 22  1  0
 24 23  1  0
 25 24  1  0
 26 25  1  0
 27 26  1  0
 28 23  2  0
 28 27  1  0
 29 28  1  0
 30 29  2  0
 31 30  1  0
 31 22  2  0
 32 31  1  0
 33 32  2  0
 34 33  1  0
 35 34  2  0
 35 30  1  0
  1 36  1  0
  1 37  1  0
  2 38  1  0
  2 39  1  0
  3 40  1  0
  3 41  1  0
  4 42  1  0
  4 43  1  0
  7 44  1  0
  9 45  1  0
 11 46  1  0
 12 47  1  0
 13 48  1  0
 14 49  1  0
 19 50  1  0
 19 51  1  0
 20 52  1  0
 20 53  1  0
 21 54  1  0
 24 55  1  0
 24 56  1  0
 25 57  1  0
 25 58  1  0
 26 59  1  0
 26 60  1  0
 27 61  1  0
 27 62  1  0
 32 63  1  0
 33 64  1  0
 34 65  1  0
 35 66  1  0
M  END
>  <score>  (9) 
-11.657

$$$$
