=
     RDKit          3D

 65 68  0  0  0  0  0  0  0  0999 V2000
   -0.2730   69.6400   67.7240 C   0  0  0  0  0  0  0  0  0  0  0  0
    0.7000   68.4670   67.8940 C   0  0  2  0  0  0  0  0  0  0  0  0
    1.5280   68.2990   66.6620 N   0  0  0  0  0  0  0  0  0  0  0  0
    0.9900   67.6620   65.5470 C   0  0  0  0  0  0  0  0  0  0  0  0
    0.4650   66.5510   65.6790 O   0  0  0  0  0  0  0  0  0  0  0  0
    1.0080   68.3140   64.2060 C   0  0  0  0  0  0  0  0  0  0  0  0
   -0.0350   69.1390   63.7640 C   0  0  0  0  0  0  0  0  0  0  0  0
    0.0120   69.7090   62.4870 C   0  0  0  0  0  0  0  0  0  0  0  0
    1.0900   69.4490   61.6380 C   0  0  0  0  0  0  0  0  0  0  0  0
    2.1210   68.6100   62.0730 C   0  0  0  0  0  0  0  0  0  0  0  0
    2.0830   68.0340   63.3520 C   0  0  0  0  0  0  0  0  0  0  0  0
    3.2590   68.3240   61.1900 N   0  0  0  0  0  4  0  0  0  0  0  0
    3.4350   69.0900   60.2310 O   0  0  0  0  0  0  0  0  0  0  0  0
    3.9620   67.3420   61.4550 O   0  0  0  0  0  1  0  0  0  0  0  0
    2.8090   68.9450   66.6590 C   0  0  0  0  0  0  0  0  0  0  0  0
    3.6830   68.8530   65.5760 C   0  0  0  0  0  0  0  0  0  0  0  0
    4.9200   69.4930   65.6380 C   0  0  0  0  0  0  0  0  0  0  0  0
    5.2690   70.1970   66.7800 C   0  0  0  0  0  0  0  0  0  0  0  0
    4.3690   70.2130   67.8250 C   0  0  0  0  0  0  0  0  0  0  0  0
    3.1690   69.5840   67.7910 N   0  0  0  0  0  0  0  0  0  0  0  0
   -0.1070   67.2190   68.3600 C   0  0  0  0  0  0  0  0  0  0  0  0
    0.5280   66.4840   69.5400 N   0  0  0  0  0  4  0  0  0  0  0  0
    1.7050   65.6230   69.0960 C   0  0  0  0  0  0  0  0  0  0  0  0
    2.4260   65.0130   70.3180 C   0  0  0  0  0  0  0  0  0  0  0  0
    1.4600   64.2470   71.2240 N   0  0  0  0  0  4  0  0  0  0  0  0
    0.2790   65.1100   71.6500 C   0  0  0  0  0  0  0  0  0  0  0  0
   -0.4500   65.7510   70.4390 C   0  0  0  0  0  0  0  0  0  0  0  0
    1.0470   62.8710   70.7170 C   0  0  0  0  0  0  0  0  0  0  0  0
    2.1630   61.8670   70.7570 C   0  0  0  0  0  0  0  0  0  0  0  0
    2.4820   61.2030   71.9540 C   0  0  0  0  0  0  0  0  0  0  0  0
    3.5410   60.2960   71.9960 C   0  0  0  0  0  0  0  0  0  0  0  0
    4.2860   60.0380   70.8470 C   0  0  0  0  0  0  0  0  0  0  0  0
    3.9700   60.6790   69.6530 C   0  0  0  0  0  0  0  0  0  0  0  0
    2.9120   61.5870   69.6040 C   0  0  0  0  0  0  0  0  0  0  0  0
   -0.5791   70.0090   68.7141 H   0  0  0  0  0  0  0  0  0  0  0  0
    0.2223   70.4496   67.1680 H   0  0  0  0  0  0  0  0  0  0  0  0
   -1.1602   69.3028   67.1680 H   0  0  0  0  0  0  0  0  0  0  0  0
    1.4428   68.6517   68.6840 H   0  0  0  0  0  0  0  0  0  0  0  0
   -0.8929   69.3390   64.4227 H   0  0  0  0  0  0  0  0  0  0  0  0
   -0.8041   70.3651   62.1501 H   0  0  0  0  0  0  0  0  0  0  0  0
    1.1279   69.9003   60.6356 H   0  0  0  0  0  0  0  0  0  0  0  0
    2.8925   67.3665   63.6823 H   0  0  0  0  0  0  0  0  0  0  0  0
    3.3988   68.2805   64.6808 H   0  0  0  0  0  0  0  0  0  0  0  0
    5.6143   69.4397   64.7865 H   0  0  0  0  0  0  0  0  0  0  0  0
    6.2314   70.7251   66.8504 H   0  0  0  0  0  0  0  0  0  0  0  0
    4.6401   70.7667   68.7360 H   0  0  0  0  0  0  0  0  0  0  0  0
   -1.1142   67.5472   68.6563 H   0  0  0  0  0  0  0  0  0  0  0  0
   -0.1274   66.5148   67.5152 H   0  0  0  0  0  0  0  0  0  0  0  0
    0.9029   67.2221   70.1529 H   0  0  0  0  0  0  0  0  0  0  0  0
    1.3360   64.8112   68.4520 H   0  0  0  0  0  0  0  0  0  0  0  0
    2.4168   66.2542   68.5438 H   0  0  0  0  0  0  0  0  0  0  0  0
    3.2051   64.3221   69.9634 H   0  0  0  0  0  0  0  0  0  0  0  0
    2.8633   65.8358   70.9027 H   0  0  0  0  0  0  0  0  0  0  0  0
    2.0047   64.0318   72.0713 H   0  0  0  0  0  0  0  0  0  0  0  0
   -0.4365   64.4827   72.2019 H   0  0  0  0  0  0  0  0  0  0  0  0
    0.6674   65.9249   72.2785 H   0  0  0  0  0  0  0  0  0  0  0  0
   -0.9478   64.9598   69.8591 H   0  0  0  0  0  0  0  0  0  0  0  0
   -1.1874   66.4743   70.8172 H   0  0  0  0  0  0  0  0  0  0  0  0
    0.2213   62.5011   71.3426 H   0  0  0  0  0  0  0  0  0  0  0  0
    0.7482   62.9862   69.6647 H   0  0  0  0  0  0  0  0  0  0  0  0
    1.8936   61.3996   72.8624 H   0  0  0  0  0  0  0  0  0  0  0  0
    3.7883   59.7837   72.9375 H   0  0  0  0  0  0  0  0  0  0  0  0
    5.1246   59.3271   70.8839 H   0  0  0  0  0  0  0  0  0  0  0  0
    4.5557   60.4693   68.7458 H   0  0  0  0  0  0  0  0  0  0  0  0
    2.6635   62.0864   68.6559 H   0  0  0  0  0  0  0  0  0  0  0  0
  2  1  1  0
  3  2  1  0
  4  3  1  0
  5  4  2  0
  6  4  1  0
  7  6  2  0
  8  7  1  0
  9  8  2  0
 10  9  1  0
 11 10  2  0
 11  6  1  0
 12 10  1  0
 13 12  2  0
 14 12  1  0
 15  3  1  0
 16 15  2  0
 17 16  1  0
 18 17  2  0
 19 18  1  0
 20 19  2  0
 20 15  1  0
 21  2  1  0
 22 21  1  0
 23 22  1  0
 24 23  1  0
 25 24  1  0
 26 25  1  0
 27 26  1  0
 27 22  1  0
 28 25  1  0
 29 28  1  0
 30 29  2  0
 31 30  1  0
 32 31  2  0
 33 32  1  0
 34 33  2  0
 34 29  1  0
  1 35  1  0
  1 36  1  0
  1 37  1  0
  2 38  1  1
  7 39  1  0
  8 40  1  0
  9 41  1  0
 11 42  1  0
 16 43  1  0
 17 44  1  0
 18 45  1  0
 19 46  1  0
 21 47  1  0
 21 48  1  0
 22 49  1  0
 23 50  1  0
 23 51  1  0
 24 52  1  0
 24 53  1  0
 25 54  1  0
 26 55  1  0
 26 56  1  0
 27 57  1  0
 27 58  1  0
 28 59  1  0
 28 60  1  0
 30 61  1  0
 31 62  1  0
 32 63  1  0
 33 64  1  0
 34 65  1  0
M  CHG  4  12   1  14  -1  22   1  25   1
M  END
>  <score>  (1) 
-10.686

$$$$
=
     RDKit          3D

 65 68  0  0  0  0  0  0  0  0999 V2000
   -0.1020   66.8770   68.0200 C   0  0  0  0  0  0  0  0  0  0  0  0
    0.9010   67.8300   68.6820 C   0  0  2  0  0  0  0  0  0  0  0  0
    1.6250   68.6220   67.6430 N   0  0  0  0  0  0  0  0  0  0  0  0
    2.3220   69.7710   68.0090 C   0  0  0  0  0  0  0  0  0  0  0  0
    1.7470   70.6440   68.6690 O   0  0  0  0  0  0  0  0  0  0  0  0
    3.7570   69.9490   67.6460 C   0  0  0  0  0  0  0  0  0  0  0  0
    4.2350   69.6980   66.3530 C   0  0  0  0  0  0  0  0  0  0  0  0
    5.5960   69.8530   66.0640 C   0  0  0  0  0  0  0  0  0  0  0  0
    6.4890   70.2450   67.0630 C   0  0  0  0  0  0  0  0  0  0  0  0
    6.0130   70.4770   68.3580 C   0  0  0  0  0  0  0  0  0  0  0  0
    4.6510   70.3250   68.6570 C   0  0  0  0  0  0  0  0  0  0  0  0
    6.9400   70.8870   69.4200 N   0  0  0  0  0  4  0  0  0  0  0  0
    7.8480   71.6700   69.1040 O   0  0  0  0  0  0  0  0  0  0  0  0
    6.7620   70.4230   70.5520 O   0  0  0  0  0  1  0  0  0  0  0  0
    1.6740   68.0570   66.3250 C   0  0  0  0  0  0  0  0  0  0  0  0
    1.0990   68.6910   65.2250 C   0  0  0  0  0  0  0  0  0  0  0  0
    1.1690   68.0850   63.9710 C   0  0  0  0  0  0  0  0  0  0  0  0
    1.7950   66.8550   63.8410 C   0  0  0  0  0  0  0  0  0  0  0  0
    2.3070   66.2710   64.9800 C   0  0  0  0  0  0  0  0  0  0  0  0
    2.2350   66.8350   66.2100 N   0  0  0  0  0  0  0  0  0  0  0  0
    1.7860   67.0090   69.6660 C   0  0  0  0  0  0  0  0  0  0  0  0
    1.3450   65.5540   69.8210 N   0  0  0  0  0  4  0  0  0  0  0  0
    0.3610   65.3870   70.9730 C   0  0  0  0  0  0  0  0  0  0  0  0
   -0.1890   63.9440   71.0150 C   0  0  0  0  0  0  0  0  0  0  0  0
    0.9360   62.9090   71.0620 N   0  0  0  0  0  4  0  0  0  0  0  0
    1.9230   63.0930   69.9160 C   0  0  0  0  0  0  0  0  0  0  0  0
    2.4750   64.5410   69.8420 C   0  0  0  0  0  0  0  0  0  0  0  0
    1.6110   62.7440   72.4180 C   0  0  0  0  0  0  0  0  0  0  0  0
    2.4520   61.5040   72.5130 C   0  0  0  0  0  0  0  0  0  0  0  0
    1.8680   60.2330   72.3780 C   0  0  0  0  0  0  0  0  0  0  0  0
    2.6470   59.0830   72.5000 C   0  0  0  0  0  0  0  0  0  0  0  0
    4.0120   59.1870   72.7530 C   0  0  0  0  0  0  0  0  0  0  0  0
    4.6050   60.4400   72.8750 C   0  0  0  0  0  0  0  0  0  0  0  0
    3.8320   61.5950   72.7540 C   0  0  0  0  0  0  0  0  0  0  0  0
   -0.6663   66.3409   68.7973 H   0  0  0  0  0  0  0  0  0  0  0  0
   -0.7982   67.4544   67.3940 H   0  0  0  0  0  0  0  0  0  0  0  0
    0.4391   66.1522   67.3940 H   0  0  0  0  0  0  0  0  0  0  0  0
    0.4062   68.5967   69.2963 H   0  0  0  0  0  0  0  0  0  0  0  0
    3.5393   69.3784   65.5632 H   0  0  0  0  0  0  0  0  0  0  0  0
    5.9637   69.6649   65.0445 H   0  0  0  0  0  0  0  0  0  0  0  0
    7.5576   70.3704   66.8339 H   0  0  0  0  0  0  0  0  0  0  0  0
    4.2867   70.5001   69.6800 H   0  0  0  0  0  0  0  0  0  0  0  0
    0.5943   69.6610   65.3450 H   0  0  0  0  0  0  0  0  0  0  0  0
    0.7307   68.5793   63.0915 H   0  0  0  0  0  0  0  0  0  0  0  0
    1.8804   66.3614   62.8617 H   0  0  0  0  0  0  0  0  0  0  0  0
    2.8014   65.2930   64.8851 H   0  0  0  0  0  0  0  0  0  0  0  0
    2.8212   67.0204   69.2941 H   0  0  0  0  0  0  0  0  0  0  0  0
    1.6901   67.4811   70.6549 H   0  0  0  0  0  0  0  0  0  0  0  0
    0.8410   65.3263   68.9520 H   0  0  0  0  0  0  0  0  0  0  0  0
    0.8741   65.6058   71.9211 H   0  0  0  0  0  0  0  0  0  0  0  0
   -0.4788   66.0819   70.8250 H   0  0  0  0  0  0  0  0  0  0  0  0
   -0.8171   63.8282   71.9106 H   0  0  0  0  0  0  0  0  0  0  0  0
   -0.7726   63.7735   70.0983 H   0  0  0  0  0  0  0  0  0  0  0  0
    0.4685   62.0021   70.9211 H   0  0  0  0  0  0  0  0  0  0  0  0
    2.7652   62.4001   70.0597 H   0  0  0  0  0  0  0  0  0  0  0  0
    1.3899   62.8873   68.9761 H   0  0  0  0  0  0  0  0  0  0  0  0
    3.1102   64.7290   70.7201 H   0  0  0  0  0  0  0  0  0  0  0  0
    3.0575   64.6468   68.9149 H   0  0  0  0  0  0  0  0  0  0  0  0
    2.2550   63.6177   72.5966 H   0  0  0  0  0  0  0  0  0  0  0  0
    0.8142   62.6571   73.1714 H   0  0  0  0  0  0  0  0  0  0  0  0
    0.7905   60.1448   72.1750 H   0  0  0  0  0  0  0  0  0  0  0  0
    2.1820   58.0915   72.3961 H   0  0  0  0  0  0  0  0  0  0  0  0
    4.6224   58.2778   72.8566 H   0  0  0  0  0  0  0  0  0  0  0  0
    5.6851   60.5199   73.0672 H   0  0  0  0  0  0  0  0  0  0  0  0
    4.3066   62.5829   72.8480 H   0  0  0  0  0  0  0  0  0  0  0  0
  2  1  1  0
  3  2  1  0
  4  3  1  0
  5  4  2  0
  6  4  1  0
  7  6  2  0
  8  7  1  0
  9  8  2  0
 10  9  1  0
 11 10  2  0
 11  6  1  0
 12 10  1  0
 13 12  2  0
 14 12  1  0
 15  3  1  0
 16 15  2  0
 17 16  1  0
 18 17  2  0
 19 18  1  0
 20 19  2  0
 20 15  1  0
 21  2  1  0
 22 21  1  0
 23 22  1  0
 24 23  1  0
 25 24  1  0
 26 25  1  0
 27 26  1  0
 27 22  1  0
 28 25  1  0
 29 28  1  0
 30 29  2  0
 31 30  1  0
 32 31  2  0
 33 32  1  0
 34 33  2  0
 34 29  1  0
  1 35  1  0
  1 36  1  0
  1 37  1  0
  2 38  1  1
  7 39  1  0
  8 40  1  0
  9 41  1  0
 11 42  1  0
 16 43  1  0
 17 44  1  0
 18 45  1  0
 19 46  1  0
 21 47  1  0
 21 48  1  0
 22 49  1  0
 23 50  1  0
 23 51  1  0
 24 52  1  0
 24 53  1  0
 25 54  1  0
 26 55  1  0
 26 56  1  0
 27 57  1  0
 27 58  1  0
 28 59  1  0
 28 60  1  0
 30 61  1  0
 31 62  1  0
 32 63  1  0
 33 64  1  0
 34 65  1  0
M  CHG  4  12   1  14  -1  22   1  25   1
M  END
>  <score>  (2) 
-10.589

$$$$
=
     RDKit          3D

 65 68  0  0  0  0  0  0  0  0999 V2000
   -0.3950   67.6910   68.0140 C   0  0  0  0  0  0  0  0  0  0  0  0
    1.0880   67.7710   68.3960 C   0  0  2  0  0  0  0  0  0  0  0  0
    1.8170   68.6730   67.4560 N   0  0  0  0  0  0  0  0  0  0  0  0
    2.4990   69.7830   67.9490 C   0  0  0  0  0  0  0  0  0  0  0  0
    1.9080   70.5780   68.6890 O   0  0  0  0  0  0  0  0  0  0  0  0
    3.9370   70.0090   67.6250 C   0  0  0  0  0  0  0  0  0  0  0  0
    4.4490   69.8210   66.3340 C   0  0  0  0  0  0  0  0  0  0  0  0
    5.8110   70.0190   66.0820 C   0  0  0  0  0  0  0  0  0  0  0  0
    6.6730   70.3920   67.1150 C   0  0  0  0  0  0  0  0  0  0  0  0
    6.1640   70.5610   68.4070 C   0  0  0  0  0  0  0  0  0  0  0  0
    4.8000   70.3650   68.6700 C   0  0  0  0  0  0  0  0  0  0  0  0
    7.0580   70.9490   69.5060 N   0  0  0  0  0  4  0  0  0  0  0  0
    6.8100   70.4790   70.6270 O   0  0  0  0  0  0  0  0  0  0  0  0
    7.9900   71.7180   69.2460 O   0  0  0  0  0  1  0  0  0  0  0  0
    1.8880   68.2500   66.0870 C   0  0  0  0  0  0  0  0  0  0  0  0
    2.5240   67.0680   65.7090 C   0  0  0  0  0  0  0  0  0  0  0  0
    2.5710   66.7170   64.3600 C   0  0  0  0  0  0  0  0  0  0  0  0
    1.9990   67.5550   63.4150 C   0  0  0  0  0  0  0  0  0  0  0  0
    1.4210   68.7250   63.8610 C   0  0  0  0  0  0  0  0  0  0  0  0
    1.3800   69.0930   65.1650 N   0  0  0  0  0  0  0  0  0  0  0  0
    1.6420   66.3220   68.5330 C   0  0  0  0  0  0  0  0  0  0  0  0
    1.4750   65.7300   69.9320 N   0  0  0  0  0  4  0  0  0  0  0  0
    2.0560   64.3230   70.0180 C   0  0  0  0  0  0  0  0  0  0  0  0
    2.0160   63.8050   71.4720 C   0  0  0  0  0  0  0  0  0  0  0  0
    0.6080   63.8860   72.0660 N   0  0  0  0  0  4  0  0  0  0  0  0
    0.0290   65.2920   71.9610 C   0  0  0  0  0  0  0  0  0  0  0  0
    0.0770   65.8420   70.5110 C   0  0  0  0  0  0  0  0  0  0  0  0
   -0.3570   62.8020   71.6010 C   0  0  0  0  0  0  0  0  0  0  0  0
   -0.3220   61.5710   72.4590 C   0  0  0  0  0  0  0  0  0  0  0  0
   -1.4350   61.2120   73.2370 C   0  0  0  0  0  0  0  0  0  0  0  0
   -1.3880   60.0860   74.0590 C   0  0  0  0  0  0  0  0  0  0  0  0
   -0.2340   59.3060   74.1100 C   0  0  0  0  0  0  0  0  0  0  0  0
    0.8700   59.6440   73.3320 C   0  0  0  0  0  0  0  0  0  0  0  0
    0.8290   60.7690   72.5080 C   0  0  0  0  0  0  0  0  0  0  0  0
   -1.0076   67.6580   68.9271 H   0  0  0  0  0  0  0  0  0  0  0  0
   -0.6690   68.5757   67.4205 H   0  0  0  0  0  0  0  0  0  0  0  0
   -0.5722   66.7820   67.4205 H   0  0  0  0  0  0  0  0  0  0  0  0
    1.2409   68.2412   69.3786 H   0  0  0  0  0  0  0  0  0  0  0  0
    3.7784   69.5170   65.5168 H   0  0  0  0  0  0  0  0  0  0  0  0
    6.2048   69.8800   65.0644 H   0  0  0  0  0  0  0  0  0  0  0  0
    7.7428   70.5516   66.9147 H   0  0  0  0  0  0  0  0  0  0  0  0
    4.4101   70.4901   69.6909 H   0  0  0  0  0  0  0  0  0  0  0  0
    2.9845   66.4183   66.4679 H   0  0  0  0  0  0  0  0  0  0  0  0
    3.0586   65.7817   64.0479 H   0  0  0  0  0  0  0  0  0  0  0  0
    2.0060   67.2955   62.3461 H   0  0  0  0  0  0  0  0  0  0  0  0
    0.9680   69.3970   63.1172 H   0  0  0  0  0  0  0  0  0  0  0  0
    1.1100   65.6777   67.8175 H   0  0  0  0  0  0  0  0  0  0  0  0
    2.7223   66.3705   68.3314 H   0  0  0  0  0  0  0  0  0  0  0  0
    2.0358   66.3306   70.5531 H   0  0  0  0  0  0  0  0  0  0  0  0
    1.4672   63.6493   69.3781 H   0  0  0  0  0  0  0  0  0  0  0  0
    3.1027   64.3509   69.6808 H   0  0  0  0  0  0  0  0  0  0  0  0
    2.3483   62.7565   71.4856 H   0  0  0  0  0  0  0  0  0  0  0  0
    2.6799   64.4383   72.0788 H   0  0  0  0  0  0  0  0  0  0  0  0
    0.7302   63.6781   73.0674 H   0  0  0  0  0  0  0  0  0  0  0  0
   -1.0185   65.2691   72.2961 H   0  0  0  0  0  0  0  0  0  0  0  0
    0.6386   65.9549   72.5926 H   0  0  0  0  0  0  0  0  0  0  0  0
   -0.6190   65.2650   69.8844 H   0  0  0  0  0  0  0  0  0  0  0  0
   -0.2102   66.9037   70.5296 H   0  0  0  0  0  0  0  0  0  0  0  0
   -1.3777   63.2116   71.6189 H   0  0  0  0  0  0  0  0  0  0  0  0
   -0.0492   62.5031   70.5881 H   0  0  0  0  0  0  0  0  0  0  0  0
   -2.3492   61.8225   73.1978 H   0  0  0  0  0  0  0  0  0  0  0  0
   -2.2627   59.8133   74.6677 H   0  0  0  0  0  0  0  0  0  0  0  0
   -0.1955   58.4232   74.7651 H   0  0  0  0  0  0  0  0  0  0  0  0
    1.7769   59.0224   73.3671 H   0  0  0  0  0  0  0  0  0  0  0  0
    1.7034   61.0290   71.8933 H   0  0  0  0  0  0  0  0  0  0  0  0
  2  1  1  0
  3  2  1  0
  4  3  1  0
  5  4  2  0
  6  4  1  0
  7  6  2  0
  8  7  1  0
  9  8  2  0
 10  9  1  0
 11 10  2  0
 11  6  1  0
 12 10  1  0
 13 12  2  0
 14 12  1  0
 15  3  1  0
 16 15  2  0
 17 16  1  0
 18 17  2  0
 19 18  1  0
 20 19  2  0
 20 15  1  0
 21  2  1  0
 22 21  1  0
 23 22  1  0
 24 23  1  0
 25 24  1  0
 26 25  1  0
 27 26  1  0
 27 22  1  0
 28 25  1  0
 29 28  1  0
 30 29  2  0
 31 30  1  0
 32 31  2  0
 33 32  1  0
 34 33  2  0
 34 29  1  0
  1 35  1  0
  1 36  1  0
  1 37  1  0
  2 38  1  1
  7 39  1  0
  8 40  1  0
  9 41  1  0
 11 42  1  0
 16 43  1  0
 17 44  1  0
 18 45  1  0
 19 46  1  0
 21 47  1  0
 21 48  1  0
 22 49  1  0
 23 50  1  0
 23 51  1  0
 24 52  1  0
 24 53  1  0
 25 54  1  0
 26 55  1  0
 26 56  1  0
 27 57  1  0
 27 58  1  0
 28 59  1  0
 28 60  1  0
 30 61  1  0
 31 62  1  0
 32 63  1  0
 33 64  1  0
 34 65  1  0
M  CHG  4  12   1  14  -1  22   1  25   1
M  END
>  <score>  (3) 
-10.121

$$$$
=
     RDKit          3D

 65 68  0  0  0  0  0  0  0  0999 V2000
   -0.7500   69.3490   66.8680 C   0  0  0  0  0  0  0  0  0  0  0  0
    0.2980   68.4610   67.5510 C   0  0  2  0  0  0  0  0  0  0  0  0
    1.4570   68.2320   66.6370 N   0  0  0  0  0  0  0  0  0  0  0  0
    1.3010   67.4350   65.5060 C   0  0  0  0  0  0  0  0  0  0  0  0
    0.8170   66.3040   65.6240 O   0  0  0  0  0  0  0  0  0  0  0  0
    1.6770   67.9380   64.1530 C   0  0  0  0  0  0  0  0  0  0  0  0
    2.9740   67.8000   63.6410 C   0  0  0  0  0  0  0  0  0  0  0  0
    3.2890   68.3110   62.3760 C   0  0  0  0  0  0  0  0  0  0  0  0
    2.3180   68.9730   61.6220 C   0  0  0  0  0  0  0  0  0  0  0  0
    1.0290   69.1260   62.1420 C   0  0  0  0  0  0  0  0  0  0  0  0
    0.7040   68.6170   63.4090 C   0  0  0  0  0  0  0  0  0  0  0  0
   -0.0020   69.8230   61.3620 N   0  0  0  0  0  4  0  0  0  0  0  0
   -0.9730   70.2750   61.9880 O   0  0  0  0  0  0  0  0  0  0  0  0
    0.1590   69.9090   60.1400 O   0  0  0  0  0  1  0  0  0  0  0  0
    2.6490   68.9820   66.9150 C   0  0  0  0  0  0  0  0  0  0  0  0
    3.6930   69.0810   65.9960 C   0  0  0  0  0  0  0  0  0  0  0  0
    4.8310   69.8140   66.3300 C   0  0  0  0  0  0  0  0  0  0  0  0
    4.9150   70.4180   67.5750 C   0  0  0  0  0  0  0  0  0  0  0  0
    3.8590   70.2440   68.4450 C   0  0  0  0  0  0  0  0  0  0  0  0
    2.7520   69.5220   68.1470 N   0  0  0  0  0  0  0  0  0  0  0  0
   -0.4130   67.1870   68.0970 C   0  0  0  0  0  0  0  0  0  0  0  0
    0.2870   66.5640   69.3050 N   0  0  0  0  0  4  0  0  0  0  0  0
    1.5660   65.8400   68.8990 C   0  0  0  0  0  0  0  0  0  0  0  0
    2.3350   65.3530   70.1460 C   0  0  0  0  0  0  0  0  0  0  0  0
    1.4530   64.5000   71.0600 N   0  0  0  0  0  4  0  0  0  0  0  0
    0.1710   65.2250   71.4480 C   0  0  0  0  0  0  0  0  0  0  0  0
   -0.6100   65.7420   70.2110 C   0  0  0  0  0  0  0  0  0  0  0  0
    1.2170   63.0710   70.5870 C   0  0  0  0  0  0  0  0  0  0  0  0
    2.4530   62.2210   70.6300 C   0  0  0  0  0  0  0  0  0  0  0  0
    2.9390   61.6090   69.4620 C   0  0  0  0  0  0  0  0  0  0  0  0
    4.0690   60.7930   69.5120 C   0  0  0  0  0  0  0  0  0  0  0  0
    4.7270   60.5820   70.7220 C   0  0  0  0  0  0  0  0  0  0  0  0
    4.2630   61.1940   71.8830 C   0  0  0  0  0  0  0  0  0  0  0  0
    3.1330   62.0120   71.8400 C   0  0  0  0  0  0  0  0  0  0  0  0
   -1.3528   69.8597   67.6334 H   0  0  0  0  0  0  0  0  0  0  0  0
   -0.2437   70.0972   66.2404 H   0  0  0  0  0  0  0  0  0  0  0  0
   -1.4050   68.7268   66.2404 H   0  0  0  0  0  0  0  0  0  0  0  0
    0.7493   68.9479   68.4281 H   0  0  0  0  0  0  0  0  0  0  0  0
    3.7466   67.2890   64.2343 H   0  0  0  0  0  0  0  0  0  0  0  0
    4.3060   68.1904   61.9744 H   0  0  0  0  0  0  0  0  0  0  0  0
    2.5651   69.3710   60.6268 H   0  0  0  0  0  0  0  0  0  0  0  0
   -0.3094   68.7507   63.8154 H   0  0  0  0  0  0  0  0  0  0  0  0
    3.6194   68.5854   65.0167 H   0  0  0  0  0  0  0  0  0  0  0  0
    5.6570   69.9124   65.6102 H   0  0  0  0  0  0  0  0  0  0  0  0
    5.7937   71.0155   67.8593 H   0  0  0  0  0  0  0  0  0  0  0  0
    3.9189   70.7178   69.4359 H   0  0  0  0  0  0  0  0  0  0  0  0
   -1.4372   67.4598   68.3914 H   0  0  0  0  0  0  0  0  0  0  0  0
   -0.3939   66.4376   67.2920 H   0  0  0  0  0  0  0  0  0  0  0  0
    0.5608   67.3570   69.9026 H   0  0  0  0  0  0  0  0  0  0  0  0
    1.3075   64.9735   68.2727 H   0  0  0  0  0  0  0  0  0  0  0  0
    2.2055   66.5379   68.3386 H   0  0  0  0  0  0  0  0  0  0  0  0
    3.1969   64.7519   69.8206 H   0  0  0  0  0  0  0  0  0  0  0  0
    2.6613   66.2370   70.7134 H   0  0  0  0  0  0  0  0  0  0  0  0
    2.0061   64.3741   71.9197 H   0  0  0  0  0  0  0  0  0  0  0  0
   -0.4726   64.5306   72.0079 H   0  0  0  0  0  0  0  0  0  0  0  0
    0.4487   66.0964   72.0592 H   0  0  0  0  0  0  0  0  0  0  0  0
   -0.9998   64.8820   69.6467 H   0  0  0  0  0  0  0  0  0  0  0  0
   -1.4349   66.3807   70.5598 H   0  0  0  0  0  0  0  0  0  0  0  0
    0.4540   62.6110   71.2321 H   0  0  0  0  0  0  0  0  0  0  0  0
    0.8938   63.1240   69.5369 H   0  0  0  0  0  0  0  0  0  0  0  0
    2.4255   61.7744   68.5034 H   0  0  0  0  0  0  0  0  0  0  0  0
    4.4416   60.3149   68.5941 H   0  0  0  0  0  0  0  0  0  0  0  0
    5.6133   59.9316   70.7598 H   0  0  0  0  0  0  0  0  0  0  0  0
    4.7879   61.0326   72.8361 H   0  0  0  0  0  0  0  0  0  0  0  0
    2.7731   62.4959   72.7600 H   0  0  0  0  0  0  0  0  0  0  0  0
  2  1  1  0
  3  2  1  0
  4  3  1  0
  5  4  2  0
  6  4  1  0
  7  6  2  0
  8  7  1  0
  9  8  2  0
 10  9  1  0
 11 10  2  0
 11  6  1  0
 12 10  1  0
 13 12  2  0
 14 12  1  0
 15  3  1  0
 16 15  2  0
 17 16  1  0
 18 17  2  0
 19 18  1  0
 20 19  2  0
 20 15  1  0
 21  2  1  0
 22 21  1  0
 23 22  1  0
 24 23  1  0
 25 24  1  0
 26 25  1  0
 27 26  1  0
 27 22  1  0
 28 25  1  0
 29 28  1  0
 30 29  2  0
 31 30  1  0
 32 31  2  0
 33 32  1  0
 34 33  2  0
 34 29  1  0
  1 35  1  0
  1 36  1  0
  1 37  1  0
  2 38  1  1
  7 39  1  0
  8 40  1  0
  9 41  1  0
 11 42  1  0
 16 43  1  0
 17 44  1  0
 18 45  1  0
 19 46  1  0
 21 47  1  0
 21 48  1  0
 22 49  1  0
 23 50  1  0
 23 51  1  0
 24 52  1  0
 24 53  1  0
 25 54  1  0
 26 55  1  0
 26 56  1  0
 27 57  1  0
 27 58  1  0
 28 59  1  0
 28 60  1  0
 30 61  1  0
 31 62  1  0
 32 63  1  0
 33 64  1  0
 34 65  1  0
M  CHG  4  12   1  14  -1  22   1  25   1
M  END
>  <score>  (4) 
-9.999

$$$$
=
     RDKit          3D

 65 68  0  0  0  0  0  0  0  0999 V2000
   -0.2260   66.7690   68.0220 C   0  0  0  0  0  0  0  0  0  0  0  0
    0.6940   67.8010   68.6850 C   0  0  2  0  0  0  0  0  0  0  0  0
    1.4130   68.5960   67.6450 N   0  0  0  0  0  0  0  0  0  0  0  0
    2.1510   69.7170   68.0160 C   0  0  0  0  0  0  0  0  0  0  0  0
    1.6170   70.5910   68.7090 O   0  0  0  0  0  0  0  0  0  0  0  0
    3.5810   69.8640   67.6200 C   0  0  0  0  0  0  0  0  0  0  0  0
    4.5310   70.4530   68.4640 C   0  0  0  0  0  0  0  0  0  0  0  0
    5.8580   70.5940   68.0400 C   0  0  0  0  0  0  0  0  0  0  0  0
    6.2410   70.1600   66.7700 C   0  0  0  0  0  0  0  0  0  0  0  0
    5.2870   69.5880   65.9220 C   0  0  0  0  0  0  0  0  0  0  0  0
    3.9560   69.4430   66.3380 C   0  0  0  0  0  0  0  0  0  0  0  0
    5.6750   69.1300   64.5810 N   0  0  0  0  0  4  0  0  0  0  0  0
    6.0020   67.9390   64.4650 O   0  0  0  0  0  0  0  0  0  0  0  0
    5.6560   69.9550   63.6620 O   0  0  0  0  0  1  0  0  0  0  0  0
    1.4140   68.0580   66.3150 C   0  0  0  0  0  0  0  0  0  0  0  0
    2.1190   66.9020   65.9830 C   0  0  0  0  0  0  0  0  0  0  0  0
    2.0910   66.4360   64.6680 C   0  0  0  0  0  0  0  0  0  0  0  0
    1.3780   67.1380   63.7090 C   0  0  0  0  0  0  0  0  0  0  0  0
    0.7360   68.2940   64.1040 C   0  0  0  0  0  0  0  0  0  0  0  0
    0.7650   68.7720   65.3720 N   0  0  0  0  0  0  0  0  0  0  0  0
    1.5840   67.0700   69.7330 C   0  0  0  0  0  0  0  0  0  0  0  0
    1.2390   65.5910   69.9050 N   0  0  0  0  0  4  0  0  0  0  0  0
    0.3290   65.3640   71.1070 C   0  0  0  0  0  0  0  0  0  0  0  0
   -0.1310   63.8900   71.1710 C   0  0  0  0  0  0  0  0  0  0  0  0
    1.0550   62.9240   71.1550 N   0  0  0  0  0  4  0  0  0  0  0  0
    1.9670   63.1680   69.9590 C   0  0  0  0  0  0  0  0  0  0  0  0
    2.4270   64.6470   69.8620 C   0  0  0  0  0  0  0  0  0  0  0  0
    1.8090   62.7980   72.4720 C   0  0  0  0  0  0  0  0  0  0  0  0
    2.4960   61.4730   72.6370 C   0  0  0  0  0  0  0  0  0  0  0  0
    3.8510   61.4130   73.0030 C   0  0  0  0  0  0  0  0  0  0  0  0
    4.4950   60.1810   73.1220 C   0  0  0  0  0  0  0  0  0  0  0  0
    3.7950   59.0010   72.8830 C   0  0  0  0  0  0  0  0  0  0  0  0
    2.4480   59.0480   72.5340 C   0  0  0  0  0  0  0  0  0  0  0  0
    1.7980   60.2760   72.4130 C   0  0  0  0  0  0  0  0  0  0  0  0
   -0.7444   66.1875   68.7986 H   0  0  0  0  0  0  0  0  0  0  0  0
   -0.9672   67.2872   67.3959 H   0  0  0  0  0  0  0  0  0  0  0  0
    0.3736   66.0919   67.3959 H   0  0  0  0  0  0  0  0  0  0  0  0
    0.1317   68.5585   69.2507 H   0  0  0  0  0  0  0  0  0  0  0  0
    4.2338   70.8058   69.4626 H   0  0  0  0  0  0  0  0  0  0  0  0
    6.6018   71.0488   68.7107 H   0  0  0  0  0  0  0  0  0  0  0  0
    7.2845   70.2669   66.4387 H   0  0  0  0  0  0  0  0  0  0  0  0
    3.2102   69.0009   65.6610 H   0  0  0  0  0  0  0  0  0  0  0  0
    2.6923   66.3620   66.7509 H   0  0  0  0  0  0  0  0  0  0  0  0
    2.6312   65.5177   64.3944 H   0  0  0  0  0  0  0  0  0  0  0  0
    1.3256   66.7857   62.6683 H   0  0  0  0  0  0  0  0  0  0  0  0
    0.1698   68.8584   63.3484 H   0  0  0  0  0  0  0  0  0  0  0  0
    2.6333   67.1471   69.4121 H   0  0  0  0  0  0  0  0  0  0  0  0
    1.4057   67.5573   70.7029 H   0  0  0  0  0  0  0  0  0  0  0  0
    0.7039   65.3349   69.0629 H   0  0  0  0  0  0  0  0  0  0  0  0
    0.8778   65.6116   72.0276 H   0  0  0  0  0  0  0  0  0  0  0  0
   -0.5573   66.0078   71.0071 H   0  0  0  0  0  0  0  0  0  0  0  0
   -0.7036   63.7355   72.0974 H   0  0  0  0  0  0  0  0  0  0  0  0
   -0.7502   63.6861   70.2850 H   0  0  0  0  0  0  0  0  0  0  0  0
    0.6358   61.9907   71.0360 H   0  0  0  0  0  0  0  0  0  0  0  0
    2.8555   62.5266   70.0549 H   0  0  0  0  0  0  0  0  0  0  0  0
    1.3979   62.9318   69.0478 H   0  0  0  0  0  0  0  0  0  0  0  0
    3.0956   64.8717   70.7061 H   0  0  0  0  0  0  0  0  0  0  0  0
    2.9520   64.7883   68.9058 H   0  0  0  0  0  0  0  0  0  0  0  0
    2.5678   63.5931   72.5177 H   0  0  0  0  0  0  0  0  0  0  0  0
    1.0692   62.8852   73.2814 H   0  0  0  0  0  0  0  0  0  0  0  0
    4.4071   62.3421   73.1968 H   0  0  0  0  0  0  0  0  0  0  0  0
    5.5572   60.1417   73.4050 H   0  0  0  0  0  0  0  0  0  0  0  0
    4.3067   58.0312   72.9700 H   0  0  0  0  0  0  0  0  0  0  0  0
    1.8951   58.1144   72.3533 H   0  0  0  0  0  0  0  0  0  0  0  0
    0.7327   60.3066   72.1406 H   0  0  0  0  0  0  0  0  0  0  0  0
  2  1  1  0
  3  2  1  0
  4  3  1  0
  5  4  2  0
  6  4  1  0
  7  6  2  0
  8  7  1  0
  9  8  2  0
 10  9  1  0
 11 10  2  0
 11  6  1  0
 12 10  1  0
 13 12  2  0
 14 12  1  0
 15  3  1  0
 16 15  2  0
 17 16  1  0
 18 17  2  0
 19 18  1  0
 20 19  2  0
 20 15  1  0
 21  2  1  0
 22 21  1  0
 23 22  1  0
 24 23  1  0
 25 24  1  0
 26 25  1  0
 27 26  1  0
 27 22  1  0
 28 25  1  0
 29 28  1  0
 30 29  2  0
 31 30  1  0
 32 31  2  0
 33 32  1  0
 34 33  2  0
 34 29  1  0
  1 35  1  0
  1 36  1  0
  1 37  1  0
  2 38  1  1
  7 39  1  0
  8 40  1  0
  9 41  1  0
 11 42  1  0
 16 43  1  0
 17 44  1  0
 18 45  1  0
 19 46  1  0
 21 47  1  0
 21 48  1  0
 22 49  1  0
 23 50  1  0
 23 51  1  0
 24 52  1  0
 24 53  1  0
 25 54  1  0
 26 55  1  0
 26 56  1  0
 27 57  1  0
 27 58  1  0
 28 59  1  0
 28 60  1  0
 30 61  1  0
 31 62  1  0
 32 63  1  0
 33 64  1  0
 34 65  1  0
M  CHG  4  12   1  14  -1  22   1  25   1
M  END
>  <score>  (5) 
-9.716

$$$$
=
     RDKit          3D

 65 68  0  0  0  0  0  0  0  0999 V2000
    2.2130   69.2310   67.3990 C   0  0  0  0  0  0  0  0  0  0  0  0
    1.7540   67.7690   67.3300 C   0  0  2  0  0  0  0  0  0  0  0  0
    1.5260   67.3640   65.9110 N   0  0  0  0  0  0  0  0  0  0  0  0
    0.3930   67.8130   65.2360 C   0  0  0  0  0  0  0  0  0  0  0  0
   -0.7200   67.6540   65.7490 O   0  0  0  0  0  0  0  0  0  0  0  0
    0.5060   68.5090   63.9220 C   0  0  0  0  0  0  0  0  0  0  0  0
   -0.5690   69.2030   63.3520 C   0  0  0  0  0  0  0  0  0  0  0  0
   -0.4250   69.8200   62.1040 C   0  0  0  0  0  0  0  0  0  0  0  0
    0.7850   69.7380   61.4120 C   0  0  0  0  0  0  0  0  0  0  0  0
    1.8510   69.0300   61.9740 C   0  0  0  0  0  0  0  0  0  0  0  0
    1.7170   68.4080   63.2250 C   0  0  0  0  0  0  0  0  0  0  0  0
    3.1300   68.9320   61.2570 N   0  0  0  0  0  4  0  0  0  0  0  0
    4.1630   68.9480   61.9430 O   0  0  0  0  0  0  0  0  0  0  0  0
    3.0940   68.8450   60.0250 O   0  0  0  0  0  1  0  0  0  0  0  0
    2.5860   66.6370   65.2740 C   0  0  0  0  0  0  0  0  0  0  0  0
    3.7650   67.2540   64.8610 C   0  0  0  0  0  0  0  0  0  0  0  0
    4.7540   66.4940   64.2350 C   0  0  0  0  0  0  0  0  0  0  0  0
    4.5420   65.1420   64.0190 C   0  0  0  0  0  0  0  0  0  0  0  0
    3.3350   64.6090   64.4210 C   0  0  0  0  0  0  0  0  0  0  0  0
    2.3550   65.3320   65.0150 N   0  0  0  0  0  0  0  0  0  0  0  0
    0.5540   67.5810   68.3040 C   0  0  0  0  0  0  0  0  0  0  0  0
    0.8850   66.7310   69.5300 N   0  0  0  0  0  4  0  0  0  0  0  0
    2.0230   65.7570   69.2440 C   0  0  0  0  0  0  0  0  0  0  0  0
    2.4450   65.0190   70.5340 C   0  0  0  0  0  0  0  0  0  0  0  0
    1.2560   64.3350   71.2120 N   0  0  0  0  0  4  0  0  0  0  0  0
    0.1180   65.3120   71.4790 C   0  0  0  0  0  0  0  0  0  0  0  0
   -0.3100   66.0810   70.2020 C   0  0  0  0  0  0  0  0  0  0  0  0
    0.7940   63.0370   70.5610 C   0  0  0  0  0  0  0  0  0  0  0  0
    1.8600   61.9800   70.5280 C   0  0  0  0  0  0  0  0  0  0  0  0
    2.0560   61.1300   71.6290 C   0  0  0  0  0  0  0  0  0  0  0  0
    3.0690   60.1710   71.6070 C   0  0  0  0  0  0  0  0  0  0  0  0
    3.8910   60.0480   70.4900 C   0  0  0  0  0  0  0  0  0  0  0  0
    3.6970   60.8750   69.3870 C   0  0  0  0  0  0  0  0  0  0  0  0
    2.6860   61.8360   69.4020 C   0  0  0  0  0  0  0  0  0  0  0  0
    2.3087   69.5360   68.4515 H   0  0  0  0  0  0  0  0  0  0  0  0
    3.1866   69.3337   66.8975 H   0  0  0  0  0  0  0  0  0  0  0  0
    1.4728   69.8718   66.8975 H   0  0  0  0  0  0  0  0  0  0  0  0
    2.5301   67.0713   67.6778 H   0  0  0  0  0  0  0  0  0  0  0  0
   -1.5285   69.2632   63.8865 H   0  0  0  0  0  0  0  0  0  0  0  0
   -1.2694   70.3724   61.6660 H   0  0  0  0  0  0  0  0  0  0  0  0
    0.8983   70.2264   60.4329 H   0  0  0  0  0  0  0  0  0  0  0  0
    2.5579   67.8445   63.6556 H   0  0  0  0  0  0  0  0  0  0  0  0
    3.9150   68.3310   65.0270 H   0  0  0  0  0  0  0  0  0  0  0  0
    5.6952   66.9651   63.9153 H   0  0  0  0  0  0  0  0  0  0  0  0
    5.3102   64.5149   63.5430 H   0  0  0  0  0  0  0  0  0  0  0  0
    3.1581   63.5369   64.2498 H   0  0  0  0  0  0  0  0  0  0  0  0
    0.2269   68.5734   68.6476 H   0  0  0  0  0  0  0  0  0  0  0  0
   -0.2317   67.0495   67.7471 H   0  0  0  0  0  0  0  0  0  0  0  0
    1.2206   67.3957   70.2416 H   0  0  0  0  0  0  0  0  0  0  0  0
    1.6892   65.0200   68.4987 H   0  0  0  0  0  0  0  0  0  0  0  0
    2.8854   66.3222   68.8608 H   0  0  0  0  0  0  0  0  0  0  0  0
    3.1961   64.2570   70.2788 H   0  0  0  0  0  0  0  0  0  0  0  0
    2.8569   65.7613   71.2335 H   0  0  0  0  0  0  0  0  0  0  0  0
    1.6151   64.0240   72.1259 H   0  0  0  0  0  0  0  0  0  0  0  0
   -0.7477   64.7508   71.8607 H   0  0  0  0  0  0  0  0  0  0  0  0
    0.4738   66.0503   72.2128 H   0  0  0  0  0  0  0  0  0  0  0  0
   -0.7788   65.3770   69.4987 H   0  0  0  0  0  0  0  0  0  0  0  0
   -1.0205   66.8696   70.4905 H   0  0  0  0  0  0  0  0  0  0  0  0
   -0.0659   62.6489   71.1267 H   0  0  0  0  0  0  0  0  0  0  0  0
    0.5316   63.2694   69.5184 H   0  0  0  0  0  0  0  0  0  0  0  0
    1.4076   61.2210   72.5129 H   0  0  0  0  0  0  0  0  0  0  0  0
    3.2186   59.5107   72.4739 H   0  0  0  0  0  0  0  0  0  0  0  0
    4.6944   59.2967   70.4790 H   0  0  0  0  0  0  0  0  0  0  0  0
    4.3421   60.7704   68.5021 H   0  0  0  0  0  0  0  0  0  0  0  0
    2.5351   62.4847   68.5265 H   0  0  0  0  0  0  0  0  0  0  0  0
  2  1  1  0
  3  2  1  0
  4  3  1  0
  5  4  2  0
  6  4  1  0
  7  6  2  0
  8  7  1  0
  9  8  2  0
 10  9  1  0
 11 10  2  0
 11  6  1  0
 12 10  1  0
 13 12  2  0
 14 12  1  0
 15  3  1  0
 16 15  2  0
 17 16  1  0
 18 17  2  0
 19 18  1  0
 20 19  2  0
 20 15  1  0
 21  2  1  0
 22 21  1  0
 23 22  1  0
 24 23  1  0
 25 24  1  0
 26 25  1  0
 27 26  1  0
 27 22  1  0
 28 25  1  0
 29 28  1  0
 30 29  2  0
 31 30  1  0
 32 31  2  0
 33 32  1  0
 34 33  2  0
 34 29  1  0
  1 35  1  0
  1 36  1  0
  1 37  1  0
  2 38  1  1
  7 39  1  0
  8 40  1  0
  9 41  1  0
 11 42  1  0
 16 43  1  0
 17 44  1  0
 18 45  1  0
 19 46  1  0
 21 47  1  0
 21 48  1  0
 22 49  1  0
 23 50  1  0
 23 51  1  0
 24 52  1  0
 24 53  1  0
 25 54  1  0
 26 55  1  0
 26 56  1  0
 27 57  1  0
 27 58  1  0
 28 59  1  0
 28 60  1  0
 30 61  1  0
 31 62  1  0
 32 63  1  0
 33 64  1  0
 34 65  1  0
M  CHG  4  12   1  14  -1  22   1  25   1
M  END
>  <score>  (6) 
-9.433

$$$$
=
     RDKit          3D

 65 68  0  0  0  0  0  0  0  0999 V2000
    3.5440   59.6900   71.8480 C   0  0  0  0  0  0  0  0  0  0  0  0
    3.4710   60.3920   73.2090 C   0  0  2  0  0  0  0  0  0  0  0  0
    2.3350   59.8480   74.0120 N   0  0  0  0  0  0  0  0  0  0  0  0
    1.2130   59.3350   73.3660 C   0  0  0  0  0  0  0  0  0  0  0  0
    0.6410   60.0190   72.5110 O   0  0  0  0  0  0  0  0  0  0  0  0
    0.7120   57.9630   73.6670 C   0  0  0  0  0  0  0  0  0  0  0  0
   -0.6180   57.7180   74.0330 C   0  0  0  0  0  0  0  0  0  0  0  0
   -1.0370   56.4170   74.3320 C   0  0  0  0  0  0  0  0  0  0  0  0
   -0.1320   55.3550   74.2820 C   0  0  0  0  0  0  0  0  0  0  0  0
    1.2000   55.6040   73.9340 C   0  0  0  0  0  0  0  0  0  0  0  0
    1.6290   56.9040   73.6330 C   0  0  0  0  0  0  0  0  0  0  0  0
    2.1650   54.4980   73.8800 N   0  0  0  0  0  4  0  0  0  0  0  0
    2.3620   53.8700   74.9320 O   0  0  0  0  0  0  0  0  0  0  0  0
    2.7190   54.2680   72.8000 O   0  0  0  0  0  1  0  0  0  0  0  0
    2.5380   59.7570   75.4290 C   0  0  0  0  0  0  0  0  0  0  0  0
    1.8470   60.5650   76.3310 C   0  0  0  0  0  0  0  0  0  0  0  0
    2.0990   60.4380   77.6970 C   0  0  0  0  0  0  0  0  0  0  0  0
    3.0430   59.5230   78.1360 C   0  0  0  0  0  0  0  0  0  0  0  0
    3.7130   58.7850   77.1830 C   0  0  0  0  0  0  0  0  0  0  0  0
    3.4960   58.9050   75.8510 N   0  0  0  0  0  0  0  0  0  0  0  0
    3.4740   61.9310   72.9730 C   0  0  0  0  0  0  0  0  0  0  0  0
    2.5440   62.3810   71.8460 N   0  0  0  0  0  4  0  0  0  0  0  0
    3.3000   63.1560   70.7730 C   0  0  0  0  0  0  0  0  0  0  0  0
    2.3760   63.4660   69.5740 C   0  0  0  0  0  0  0  0  0  0  0  0
    1.0970   64.1820   70.0110 N   0  0  0  0  0  4  0  0  0  0  0  0
    0.3580   63.4080   71.0950 C   0  0  0  0  0  0  0  0  0  0  0  0
    1.2710   63.0670   72.3030 C   0  0  0  0  0  0  0  0  0  0  0  0
    1.2590   65.6630   70.3340 C   0  0  0  0  0  0  0  0  0  0  0  0
    0.6830   66.5640   69.2800 C   0  0  0  0  0  0  0  0  0  0  0  0
    1.4340   67.6370   68.7710 C   0  0  0  0  0  0  0  0  0  0  0  0
    0.8830   68.4920   67.8160 C   0  0  0  0  0  0  0  0  0  0  0  0
   -0.4160   68.2850   67.3580 C   0  0  0  0  0  0  0  0  0  0  0  0
   -1.1640   67.2170   67.8450 C   0  0  0  0  0  0  0  0  0  0  0  0
   -0.6200   66.3580   68.8000 C   0  0  0  0  0  0  0  0  0  0  0  0
    3.6567   58.6064   71.9999 H   0  0  0  0  0  0  0  0  0  0  0  0
    2.6205   59.8871   71.2838 H   0  0  0  0  0  0  0  0  0  0  0  0
    4.4072   60.0729   71.2838 H   0  0  0  0  0  0  0  0  0  0  0  0
    4.3538   60.1854   73.8320 H   0  0  0  0  0  0  0  0  0  0  0  0
   -1.3348   58.5508   74.0854 H   0  0  0  0  0  0  0  0  0  0  0  0
   -2.0852   56.2298   74.6080 H   0  0  0  0  0  0  0  0  0  0  0  0
   -0.4632   54.3320   74.5141 H   0  0  0  0  0  0  0  0  0  0  0  0
    2.6807   57.0920   73.3713 H   0  0  0  0  0  0  0  0  0  0  0  0
    1.1095   61.2963   75.9685 H   0  0  0  0  0  0  0  0  0  0  0  0
    1.5522   61.0599   78.4210 H   0  0  0  0  0  0  0  0  0  0  0  0
    3.2507   59.3900   79.2080 H   0  0  0  0  0  0  0  0  0  0  0  0
    4.4655   58.0584   77.5232 H   0  0  0  0  0  0  0  0  0  0  0  0
    3.1574   62.4257   73.9031 H   0  0  0  0  0  0  0  0  0  0  0  0
    4.4963   62.2092   72.6771 H   0  0  0  0  0  0  0  0  0  0  0  0
    2.1993   61.5136   71.4106 H   0  0  0  0  0  0  0  0  0  0  0  0
    3.6671   64.1008   71.2004 H   0  0  0  0  0  0  0  0  0  0  0  0
    4.1440   62.5442   70.4217 H   0  0  0  0  0  0  0  0  0  0  0  0
    2.9180   64.1076   68.8637 H   0  0  0  0  0  0  0  0  0  0  0  0
    2.0905   62.5116   69.1074 H   0  0  0  0  0  0  0  0  0  0  0  0
    0.4968   64.1882   69.1740 H   0  0  0  0  0  0  0  0  0  0  0  0
   -0.4864   64.0166   71.4507 H   0  0  0  0  0  0  0  0  0  0  0  0
    0.0137   62.4601   70.6558 H   0  0  0  0  0  0  0  0  0  0  0  0
    1.5326   63.9965   72.8298 H   0  0  0  0  0  0  0  0  0  0  0  0
    0.7263   62.3848   72.9722 H   0  0  0  0  0  0  0  0  0  0  0  0
    0.7510   65.8706   71.2873 H   0  0  0  0  0  0  0  0  0  0  0  0
    2.3380   65.8701   70.3875 H   0  0  0  0  0  0  0  0  0  0  0  0
    2.4613   67.8037   69.1272 H   0  0  0  0  0  0  0  0  0  0  0  0
    1.4758   69.3315   67.4239 H   0  0  0  0  0  0  0  0  0  0  0  0
   -0.8508   68.9657   66.6113 H   0  0  0  0  0  0  0  0  0  0  0  0
   -2.1867   67.0499   67.4759 H   0  0  0  0  0  0  0  0  0  0  0  0
   -1.2154   65.5144   69.1791 H   0  0  0  0  0  0  0  0  0  0  0  0
  2  1  1  0
  3  2  1  0
  4  3  1  0
  5  4  2  0
  6  4  1  0
  7  6  2  0
  8  7  1  0
  9  8  2  0
 10  9  1  0
 11 10  2  0
 11  6  1  0
 12 10  1  0
 13 12  2  0
 14 12  1  0
 15  3  1  0
 16 15  2  0
 17 16  1  0
 18 17  2  0
 19 18  1  0
 20 19  2  0
 20 15  1  0
 21  2  1  0
 22 21  1  0
 23 22  1  0
 24 23  1  0
 25 24  1  0
 26 25  1  0
 27 26  1  0
 27 22  1  0
 28 25  1  0
 29 28  1  0
 30 29  2  0
 31 30  1  0
 32 31  2  0
 33 32  1  0
 34 33  2  0
 34 29  1  0
  1 35  1  0
  1 36  1  0
  1 37  1  0
  2 38  1  1
  7 39  1  0
  8 40  1  0
  9 41  1  0
 11 42  1  0
 16 43  1  0
 17 44  1  0
 18 45  1  0
 19 46  1  0
 21 47  1  0
 21 48  1  0
 22 49  1  0
 23 50  1  0
 23 51  1  0
 24 52  1  0
 24 53  1  0
 25 54  1  0
 26 55  1  0
 26 56  1  0
 27 57  1  0
 27 58  1  0
 28 59  1  0
 28 60  1  0
 30 61  1  0
 31 62  1  0
 32 63  1  0
 33 64  1  0
 34 65  1  0
M  CHG  4  12   1  14  -1  22   1  25   1
M  END
>  <score>  (7) 
-9.428

$$$$
=
     RDKit          3D

 65 68  0  0  0  0  0  0  0  0999 V2000
   -0.7470   66.4730   68.2400 C   0  0  0  0  0  0  0  0  0  0  0  0
    0.2500   67.5540   68.6750 C   0  0  2  0  0  0  0  0  0  0  0  0
    0.7020   68.3470   67.4940 N   0  0  0  0  0  0  0  0  0  0  0  0
    2.0340   68.7420   67.3920 C   0  0  0  0  0  0  0  0  0  0  0  0
    2.5640   69.3340   68.3390 O   0  0  0  0  0  0  0  0  0  0  0  0
    2.8380   68.4320   66.1750 C   0  0  0  0  0  0  0  0  0  0  0  0
    3.5580   69.4180   65.4870 C   0  0  0  0  0  0  0  0  0  0  0  0
    4.2780   69.0860   64.3330 C   0  0  0  0  0  0  0  0  0  0  0  0
    4.2720   67.7760   63.8510 C   0  0  0  0  0  0  0  0  0  0  0  0
    3.5370   66.7970   64.5280 C   0  0  0  0  0  0  0  0  0  0  0  0
    2.8130   67.1200   65.6860 C   0  0  0  0  0  0  0  0  0  0  0  0
    3.5190   65.4150   64.0320 N   0  0  0  0  0  4  0  0  0  0  0  0
    4.1430   65.1840   62.9850 O   0  0  0  0  0  0  0  0  0  0  0  0
    2.8820   64.5780   64.6800 O   0  0  0  0  0  1  0  0  0  0  0  0
   -0.2570   68.5360   66.4430 C   0  0  0  0  0  0  0  0  0  0  0  0
    0.1110   68.5620   65.0990 C   0  0  0  0  0  0  0  0  0  0  0  0
   -0.8670   68.7630   64.1250 C   0  0  0  0  0  0  0  0  0  0  0  0
   -2.1860   68.9480   64.5080 C   0  0  0  0  0  0  0  0  0  0  0  0
   -2.4680   68.9460   65.8580 C   0  0  0  0  0  0  0  0  0  0  0  0
   -1.5310   68.7700   66.8210 N   0  0  0  0  0  0  0  0  0  0  0  0
    1.3680   66.8820   69.5250 C   0  0  0  0  0  0  0  0  0  0  0  0
    1.1470   65.3870   69.7580 N   0  0  0  0  0  4  0  0  0  0  0  0
    0.3840   65.1290   71.0520 C   0  0  0  0  0  0  0  0  0  0  0  0
    0.0370   63.6300   71.1900 C   0  0  0  0  0  0  0  0  0  0  0  0
    1.2790   62.7460   71.0660 N   0  0  0  0  0  4  0  0  0  0  0  0
    2.0430   63.0220   69.7770 C   0  0  0  0  0  0  0  0  0  0  0  0
    2.3860   64.5250   69.6060 C   0  0  0  0  0  0  0  0  0  0  0  0
    2.1730   62.7030   72.2990 C   0  0  0  0  0  0  0  0  0  0  0  0
    2.5500   61.3090   72.7080 C   0  0  0  0  0  0  0  0  0  0  0  0
    1.6430   60.2490   72.5480 C   0  0  0  0  0  0  0  0  0  0  0  0
    1.9850   58.9610   72.9610 C   0  0  0  0  0  0  0  0  0  0  0  0
    3.2320   58.7170   73.5310 C   0  0  0  0  0  0  0  0  0  0  0  0
    4.1450   59.7570   73.6810 C   0  0  0  0  0  0  0  0  0  0  0  0
    3.8100   61.0480   73.2710 C   0  0  0  0  0  0  0  0  0  0  0  0
   -1.1848   65.9983   69.1305 H   0  0  0  0  0  0  0  0  0  0  0  0
   -1.5459   66.9316   67.6387 H   0  0  0  0  0  0  0  0  0  0  0  0
   -0.2254   65.7137   67.6387 H   0  0  0  0  0  0  0  0  0  0  0  0
   -0.2108   68.3061   69.3323 H   0  0  0  0  0  0  0  0  0  0  0  0
    3.5575   70.4549   65.8543 H   0  0  0  0  0  0  0  0  0  0  0  0
    4.8512   69.8613   63.8036 H   0  0  0  0  0  0  0  0  0  0  0  0
    4.8406   67.5156   62.9461 H   0  0  0  0  0  0  0  0  0  0  0  0
    2.2290   66.3468   66.2067 H   0  0  0  0  0  0  0  0  0  0  0  0
    1.1632   68.4252   64.8090 H   0  0  0  0  0  0  0  0  0  0  0  0
   -0.5931   68.7746   63.0597 H   0  0  0  0  0  0  0  0  0  0  0  0
   -2.9806   69.0915   63.7610 H   0  0  0  0  0  0  0  0  0  0  0  0
   -3.5120   69.0957   66.1706 H   0  0  0  0  0  0  0  0  0  0  0  0
    2.3276   67.0143   69.0038 H   0  0  0  0  0  0  0  0  0  0  0  0
    1.3569   67.3667   70.5124 H   0  0  0  0  0  0  0  0  0  0  0  0
    0.5471   65.0742   68.9814 H   0  0  0  0  0  0  0  0  0  0  0  0
    1.0061   65.4360   71.9057 H   0  0  0  0  0  0  0  0  0  0  0  0
   -0.5506   65.7088   71.0338 H   0  0  0  0  0  0  0  0  0  0  0  0
   -0.4240   63.4603   72.1742 H   0  0  0  0  0  0  0  0  0  0  0  0
   -0.6553   63.3630   70.3779 H   0  0  0  0  0  0  0  0  0  0  0  0
    0.9155   61.7840   71.0077 H   0  0  0  0  0  0  0  0  0  0  0  0
    2.9793   62.4448   69.7903 H   0  0  0  0  0  0  0  0  0  0  0  0
    1.4002   62.7257   68.9349 H   0  0  0  0  0  0  0  0  0  0  0  0
    3.1218   64.8151   70.3704 H   0  0  0  0  0  0  0  0  0  0  0  0
    2.7971   64.6777   68.5972 H   0  0  0  0  0  0  0  0  0  0  0  0
    3.0936   63.2650   72.0830 H   0  0  0  0  0  0  0  0  0  0  0  0
    1.6044   63.1450   73.1305 H   0  0  0  0  0  0  0  0  0  0  0  0
    0.6581   60.4351   72.0948 H   0  0  0  0  0  0  0  0  0  0  0  0
    1.2680   58.1362   72.8361 H   0  0  0  0  0  0  0  0  0  0  0  0
    3.4956   57.7019   73.8629 H   0  0  0  0  0  0  0  0  0  0  0  0
    5.1327   59.5607   74.1237 H   0  0  0  0  0  0  0  0  0  0  0  0
    4.5364   61.8655   73.3893 H   0  0  0  0  0  0  0  0  0  0  0  0
  2  1  1  0
  3  2  1  0
  4  3  1  0
  5  4  2  0
  6  4  1  0
  7  6  2  0
  8  7  1  0
  9  8  2  0
 10  9  1  0
 11 10  2  0
 11  6  1  0
 12 10  1  0
 13 12  2  0
 14 12  1  0
 15  3  1  0
 16 15  2  0
 17 16  1  0
 18 17  2  0
 19 18  1  0
 20 19  2  0
 20 15  1  0
 21  2  1  0
 22 21  1  0
 23 22  1  0
 24 23  1  0
 25 24  1  0
 26 25  1  0
 27 26  1  0
 27 22  1  0
 28 25  1  0
 29 28  1  0
 30 29  2  0
 31 30  1  0
 32 31  2  0
 33 32  1  0
 34 33  2  0
 34 29  1  0
  1 35  1  0
  1 36  1  0
  1 37  1  0
  2 38  1  1
  7 39  1  0
  8 40  1  0
  9 41  1  0
 11 42  1  0
 16 43  1  0
 17 44  1  0
 18 45  1  0
 19 46  1  0
 21 47  1  0
 21 48  1  0
 22 49  1  0
 23 50  1  0
 23 51  1  0
 24 52  1  0
 24 53  1  0
 25 54  1  0
 26 55  1  0
 26 56  1  0
 27 57  1  0
 27 58  1  0
 28 59  1  0
 28 60  1  0
 30 61  1  0
 31 62  1  0
 32 63  1  0
 33 64  1  0
 34 65  1  0
M  CHG  4  12   1  14  -1  22   1  25   1
M  END
>  <score>  (8) 
-9.108

$$$$
=
     RDKit          3D

 65 68  0  0  0  0  0  0  0  0999 V2000
    3.3730   59.5690   71.8580 C   0  0  0  0  0  0  0  0  0  0  0  0
    3.4080   60.1860   73.2620 C   0  0  2  0  0  0  0  0  0  0  0  0
    2.4030   59.5230   74.1440 N   0  0  0  0  0  0  0  0  0  0  0  0
    1.2410   58.9890   73.5920 C   0  0  0  0  0  0  0  0  0  0  0  0
    0.5400   59.6940   72.8580 O   0  0  0  0  0  0  0  0  0  0  0  0
    0.8500   57.5720   73.8450 C   0  0  0  0  0  0  0  0  0  0  0  0
    1.6870   56.4980   73.5160 C   0  0  0  0  0  0  0  0  0  0  0  0
    1.2670   55.1830   73.7470 C   0  0  0  0  0  0  0  0  0  0  0  0
    0.0080   54.9300   74.2950 C   0  0  0  0  0  0  0  0  0  0  0  0
   -0.8330   56.0030   74.6070 C   0  0  0  0  0  0  0  0  0  0  0  0
   -0.4220   57.3250   74.3780 C   0  0  0  0  0  0  0  0  0  0  0  0
   -2.1620   55.7540   75.1810 N   0  0  0  0  0  4  0  0  0  0  0  0
   -2.5120   54.5700   75.2970 O   0  0  0  0  0  0  0  0  0  0  0  0
   -2.8440   56.7330   75.5030 O   0  0  0  0  0  1  0  0  0  0  0  0
    2.7730   59.3490   75.5190 C   0  0  0  0  0  0  0  0  0  0  0  0
    3.5870   58.2990   75.9410 C   0  0  0  0  0  0  0  0  0  0  0  0
    3.9010   58.1760   77.2940 C   0  0  0  0  0  0  0  0  0  0  0  0
    3.3870   59.0900   78.2010 C   0  0  0  0  0  0  0  0  0  0  0  0
    2.5580   60.0790   77.7150 C   0  0  0  0  0  0  0  0  0  0  0  0
    2.2270   60.2060   76.4070 N   0  0  0  0  0  0  0  0  0  0  0  0
    3.2930   61.7330   73.1240 C   0  0  0  0  0  0  0  0  0  0  0  0
    2.3300   62.1810   72.0250 N   0  0  0  0  0  4  0  0  0  0  0  0
    3.0310   63.0500   70.9860 C   0  0  0  0  0  0  0  0  0  0  0  0
    2.0820   63.3630   69.8080 C   0  0  0  0  0  0  0  0  0  0  0  0
    0.7670   63.9820   70.2860 N   0  0  0  0  0  4  0  0  0  0  0  0
    0.0820   63.1150   71.3350 C   0  0  0  0  0  0  0  0  0  0  0  0
    1.0220   62.7700   72.5200 C   0  0  0  0  0  0  0  0  0  0  0  0
    0.8450   65.4520   70.6790 C   0  0  0  0  0  0  0  0  0  0  0  0
    0.5440   66.3840   69.5420 C   0  0  0  0  0  0  0  0  0  0  0  0
    1.4680   67.3740   69.1670 C   0  0  0  0  0  0  0  0  0  0  0  0
    1.1710   68.2610   68.1320 C   0  0  0  0  0  0  0  0  0  0  0  0
   -0.0450   68.1670   67.4590 C   0  0  0  0  0  0  0  0  0  0  0  0
   -0.9630   67.1810   67.8110 C   0  0  0  0  0  0  0  0  0  0  0  0
   -0.6720   66.2910   68.8460 C   0  0  0  0  0  0  0  0  0  0  0  0
    3.3109   58.4738   71.9402 H   0  0  0  0  0  0  0  0  0  0  0  0
    2.4948   59.9462   71.3135 H   0  0  0  0  0  0  0  0  0  0  0  0
    4.2882   59.8445   71.3135 H   0  0  0  0  0  0  0  0  0  0  0  0
    4.3640   60.0036   73.7746 H   0  0  0  0  0  0  0  0  0  0  0  0
    2.6766   56.6885   73.0751 H   0  0  0  0  0  0  0  0  0  0  0  0
    1.9326   54.3441   73.4954 H   0  0  0  0  0  0  0  0  0  0  0  0
   -0.3194   53.8962   74.4796 H   0  0  0  0  0  0  0  0  0  0  0  0
   -1.0945   58.1625   74.6155 H   0  0  0  0  0  0  0  0  0  0  0  0
    3.9784   57.5735   75.2127 H   0  0  0  0  0  0  0  0  0  0  0  0
    4.5521   57.3594   77.6394 H   0  0  0  0  0  0  0  0  0  0  0  0
    3.6321   59.0284   79.2716 H   0  0  0  0  0  0  0  0  0  0  0  0
    2.1422   60.8053   78.4288 H   0  0  0  0  0  0  0  0  0  0  0  0
    2.9409   62.1421   74.0825 H   0  0  0  0  0  0  0  0  0  0  0  0
    4.2906   62.1067   72.8498 H   0  0  0  0  0  0  0  0  0  0  0  0
    2.0336   61.3158   71.5512 H   0  0  0  0  0  0  0  0  0  0  0  0
    3.3459   63.9930   71.4567 H   0  0  0  0  0  0  0  0  0  0  0  0
    3.9059   62.5056   70.6010 H   0  0  0  0  0  0  0  0  0  0  0  0
    2.5806   64.0684   69.1270 H   0  0  0  0  0  0  0  0  0  0  0  0
    1.8486   62.4174   69.2968 H   0  0  0  0  0  0  0  0  0  0  0  0
    0.1612   63.9936   69.4530 H   0  0  0  0  0  0  0  0  0  0  0  0
   -0.7934   63.6558   71.7239 H   0  0  0  0  0  0  0  0  0  0  0  0
   -0.2105   62.1710   70.8520 H   0  0  0  0  0  0  0  0  0  0  0  0
    1.2335   63.6869   73.0897 H   0  0  0  0  0  0  0  0  0  0  0  0
    0.5224   62.0258   73.1576 H   0  0  0  0  0  0  0  0  0  0  0  0
    0.1195   65.6376   71.4848 H   0  0  0  0  0  0  0  0  0  0  0  0
    1.8782   65.6505   71.0000 H   0  0  0  0  0  0  0  0  0  0  0  0
    2.4313   67.4501   69.6927 H   0  0  0  0  0  0  0  0  0  0  0  0
    1.8981   69.0357   67.8470 H   0  0  0  0  0  0  0  0  0  0  0  0
   -0.2803   68.8725   66.6485 H   0  0  0  0  0  0  0  0  0  0  0  0
   -1.9190   67.1034   67.2725 H   0  0  0  0  0  0  0  0  0  0  0  0
   -1.3995   65.5121   69.1181 H   0  0  0  0  0  0  0  0  0  0  0  0
  2  1  1  0
  3  2  1  0
  4  3  1  0
  5  4  2  0
  6  4  1  0
  7  6  2  0
  8  7  1  0
  9  8  2  0
 10  9  1  0
 11 10  2  0
 11  6  1  0
 12 10  1  0
 13 12  2  0
 14 12  1  0
 15  3  1  0
 16 15  2  0
 17 16  1  0
 18 17  2  0
 19 18  1  0
 20 19  2  0
 20 15  1  0
 21  2  1  0
 22 21  1  0
 23 22  1  0
 24 23  1  0
 25 24  1  0
 26 25  1  0
 27 26  1  0
 27 22  1  0
 28 25  1  0
 29 28  1  0
 30 29  2  0
 31 30  1  0
 32 31  2  0
 33 32  1  0
 34 33  2  0
 34 29  1  0
  1 35  1  0
  1 36  1  0
  1 37  1  0
  2 38  1  1
  7 39  1  0
  8 40  1  0
  9 41  1  0
 11 42  1  0
 16 43  1  0
 17 44  1  0
 18 45  1  0
 19 46  1  0
 21 47  1  0
 21 48  1  0
 22 49  1  0
 23 50  1  0
 23 51  1  0
 24 52  1  0
 24 53  1  0
 25 54  1  0
 26 55  1  0
 26 56  1  0
 27 57  1  0
 27 58  1  0
 28 59  1  0
 28 60  1  0
 30 61  1  0
 31 62  1  0
 32 63  1  0
 33 64  1  0
 34 65  1  0
M  CHG  4  12   1  14  -1  22   1  25   1
M  END
>  <score>  (9) 
-9.061

$$$$
