=
     RDKit          3D

 46 47  0  0  0  0  0  0  0  0999 V2000
    3.0560   69.2220   66.1060 C   0  0  0  0  0  0  0  0  0  0  0  0
    2.2710   69.1460   67.2040 C   0  0  0  0  0  0  0  0  0  0  0  0
    2.7410   69.4000   68.6140 C   0  0  0  0  0  0  0  0  0  0  0  0
    0.9200   68.8670   67.0590 N   0  0  0  0  0  0  0  0  0  0  0  0
    0.2640   68.7780   65.8390 C   0  0  0  0  0  0  0  0  0  0  0  0
    0.9790   68.8400   64.6930 C   0  0  0  0  0  0  0  0  0  0  0  0
    2.4930   69.0230   64.7040 C   0  0  2  0  0  0  0  0  0  0  0  0
   -1.2380   68.6730   65.9080 C   0  0  0  0  0  0  0  0  0  0  0  0
    3.1920   67.8550   63.9940 C   0  0  0  0  0  0  0  0  0  0  0  0
    3.8520   68.0420   62.7650 C   0  0  0  0  0  0  0  0  0  0  0  0
    4.4850   66.9760   62.1230 C   0  0  0  0  0  0  0  0  0  0  0  0
    4.4690   65.7050   62.6970 C   0  0  0  0  0  0  0  0  0  0  0  0
    3.8150   65.5080   63.9200 C   0  0  0  0  0  0  0  0  0  0  0  0
    3.1780   66.5730   64.5700 C   0  0  0  0  0  0  0  0  0  0  0  0
    3.7990   64.1690   64.5230 N   0  0  0  0  0  4  0  0  0  0  0  0
    3.4480   64.0760   65.7090 O   0  0  0  0  0  0  0  0  0  0  0  0
    4.1370   63.2100   63.8160 O   0  0  0  0  0  1  0  0  0  0  0  0
    4.5000   69.5350   66.1490 C   0  0  0  0  0  0  0  0  0  0  0  0
    5.3490   68.8660   65.5800 O   0  0  0  0  0  0  0  0  0  0  0  0
    4.7270   70.5940   66.9650 O   0  0  0  0  0  0  0  0  0  0  0  0
    6.2190   70.8930   68.8040 C   0  0  0  0  0  0  0  0  0  0  0  0
    6.1060   70.7910   67.2950 C   0  0  0  0  0  0  0  0  0  0  0  0
    0.3770   68.7800   63.3440 C   0  0  0  0  0  0  0  0  0  0  0  0
   -0.0350   67.7480   62.8380 O   0  0  0  0  0  0  0  0  0  0  0  0
    0.2820   70.0260   62.8160 O   0  0  0  0  0  0  0  0  0  0  0  0
    0.0000   70.0360   61.4160 C   0  0  0  0  0  0  0  0  0  0  0  0
    2.0021   69.0007   69.3243 H   0  0  0  0  0  0  0  0  0  0  0  0
    3.7089   68.9022   68.7732 H   0  0  0  0  0  0  0  0  0  0  0  0
    2.8549   70.4825   68.7732 H   0  0  0  0  0  0  0  0  0  0  0  0
    0.3663   68.7157   67.9142 H   0  0  0  0  0  0  0  0  0  0  0  0
    2.7004   69.9492   64.1480 H   0  0  0  0  0  0  0  0  0  0  0  0
   -1.5560   68.6508   66.9608 H   0  0  0  0  0  0  0  0  0  0  0  0
   -1.6897   69.5418   65.4068 H   0  0  0  0  0  0  0  0  0  0  0  0
   -1.5644   67.7498   65.4068 H   0  0  0  0  0  0  0  0  0  0  0  0
    3.8693   69.0408   62.3044 H   0  0  0  0  0  0  0  0  0  0  0  0
    4.9970   67.1388   61.1632 H   0  0  0  0  0  0  0  0  0  0  0  0
    4.9664   64.8633   62.1929 H   0  0  0  0  0  0  0  0  0  0  0  0
    2.6675   66.4061   65.5300 H   0  0  0  0  0  0  0  0  0  0  0  0
    5.4804   70.2263   69.2729 H   0  0  0  0  0  0  0  0  0  0  0  0
    7.2311   70.5967   69.1168 H   0  0  0  0  0  0  0  0  0  0  0  0
    6.0275   71.9301   69.1168 H   0  0  0  0  0  0  0  0  0  0  0  0
    6.7013   69.9398   66.9331 H   0  0  0  0  0  0  0  0  0  0  0  0
    6.4840   71.7091   66.8214 H   0  0  0  0  0  0  0  0  0  0  0  0
   -1.0884   70.0746   61.2615 H   0  0  0  0  0  0  0  0  0  0  0  0
    0.4674   70.9181   60.9541 H   0  0  0  0  0  0  0  0  0  0  0  0
    0.4038   69.1230   60.9541 H   0  0  0  0  0  0  0  0  0  0  0  0
  2  1  2  0
  3  2  1  0
  4  2  1  0
  5  4  1  0
  6  5  2  0
  7  6  1  0
  7  1  1  0
  8  5  1  0
  9  7  1  0
 10  9  2  0
 11 10  1  0
 12 11  2  0
 13 12  1  0
 14 13  2  0
 14  9  1  0
 15 13  1  0
 16 15  2  0
 17 15  1  0
 18  1  1  0
 19 18  2  0
 20 18  1  0
 22 20  1  0
 22 21  1  0
 23  6  1  0
 24 23  2  0
 25 23  1  0
 26 25  1  0
  3 27  1  0
  3 28  1  0
  3 29  1  0
  4 30  1  0
  7 31  1  6
  8 32  1  0
  8 33  1  0
  8 34  1  0
 10 35  1  0
 11 36  1  0
 12 37  1  0
 14 38  1  0
 21 39  1  0
 21 40  1  0
 21 41  1  0
 22 42  1  0
 22 43  1  0
 26 44  1  0
 26 45  1  0
 26 46  1  0
M  CHG  2  15   1  17  -1
M  END
>  <score>  (1) 
-9.496

$$$$
=
     RDKit          3D

 46 47  0  0  0  0  0  0  0  0999 V2000
    3.1180   67.8820   63.9860 C   0  0  0  0  0  0  0  0  0  0  0  0
    2.8310   68.3780   62.7620 C   0  0  0  0  0  0  0  0  0  0  0  0
    3.7540   68.3140   61.5710 C   0  0  0  0  0  0  0  0  0  0  0  0
    1.5880   68.9510   62.5320 N   0  0  0  0  0  0  0  0  0  0  0  0
    0.5410   68.9450   63.4420 C   0  0  0  0  0  0  0  0  0  0  0  0
    0.7470   68.4700   64.6910 C   0  0  0  0  0  0  0  0  0  0  0  0
    2.1030   67.9190   65.1220 C   0  0  2  0  0  0  0  0  0  0  0  0
   -0.7850   69.4360   62.9200 C   0  0  0  0  0  0  0  0  0  0  0  0
    2.6550   68.7010   66.3230 C   0  0  0  0  0  0  0  0  0  0  0  0
    2.0070   68.6670   67.5720 C   0  0  0  0  0  0  0  0  0  0  0  0
    2.5130   69.3810   68.6600 C   0  0  0  0  0  0  0  0  0  0  0  0
    3.6740   70.1410   68.5200 C   0  0  0  0  0  0  0  0  0  0  0  0
    4.3270   70.1810   67.2820 C   0  0  0  0  0  0  0  0  0  0  0  0
    3.8250   69.4670   66.1850 C   0  0  0  0  0  0  0  0  0  0  0  0
    5.5500   70.9810   67.1340 N   0  0  0  0  0  4  0  0  0  0  0  0
    5.8220   71.7900   68.0350 O   0  0  0  0  0  0  0  0  0  0  0  0
    6.2400   70.8040   66.1210 O   0  0  0  0  0  1  0  0  0  0  0  0
    4.4010   67.2340   64.3290 C   0  0  0  0  0  0  0  0  0  0  0  0
    5.4800   67.7990   64.2540 O   0  0  0  0  0  0  0  0  0  0  0  0
    4.1980   65.9310   64.6470 O   0  0  0  0  0  0  0  0  0  0  0  0
    4.8320   63.7350   63.9580 C   0  0  0  0  0  0  0  0  0  0  0  0
    4.2110   65.0470   63.5200 C   0  0  0  0  0  0  0  0  0  0  0  0
   -0.3030   68.3970   65.7280 C   0  0  0  0  0  0  0  0  0  0  0  0
   -0.9310   69.3680   66.1170 O   0  0  0  0  0  0  0  0  0  0  0  0
   -0.5090   67.1080   66.0980 O   0  0  0  0  0  0  0  0  0  0  0  0
   -1.3410   66.9670   67.2510 C   0  0  0  0  0  0  0  0  0  0  0  0
    4.7954   68.2418   61.9177 H   0  0  0  0  0  0  0  0  0  0  0  0
    3.5078   67.4308   60.9633 H   0  0  0  0  0  0  0  0  0  0  0  0
    3.6320   69.2228   60.9633 H   0  0  0  0  0  0  0  0  0  0  0  0
    1.4324   69.4119   61.6241 H   0  0  0  0  0  0  0  0  0  0  0  0
    1.9342   66.8752   65.4254 H   0  0  0  0  0  0  0  0  0  0  0  0
   -1.4444   69.6802   63.7659 H   0  0  0  0  0  0  0  0  0  0  0  0
   -0.6273   70.3353   62.3066 H   0  0  0  0  0  0  0  0  0  0  0  0
   -1.2510   68.6508   62.3066 H   0  0  0  0  0  0  0  0  0  0  0  0
    1.0906   68.0706   67.6925 H   0  0  0  0  0  0  0  0  0  0  0  0
    1.9948   69.3440   69.6296 H   0  0  0  0  0  0  0  0  0  0  0  0
    4.0737   70.7048   69.3758 H   0  0  0  0  0  0  0  0  0  0  0  0
    4.3464   69.5063   65.2172 H   0  0  0  0  0  0  0  0  0  0  0  0
    4.8540   63.6885   65.0568 H   0  0  0  0  0  0  0  0  0  0  0  0
    4.2345   62.8981   63.5675 H   0  0  0  0  0  0  0  0  0  0  0  0
    5.8581   63.6666   63.5675 H   0  0  0  0  0  0  0  0  0  0  0  0
    3.1827   64.8743   63.1697 H   0  0  0  0  0  0  0  0  0  0  0  0
    4.7921   65.4877   62.6965 H   0  0  0  0  0  0  0  0  0  0  0  0
   -0.7294   67.0707   68.1594 H   0  0  0  0  0  0  0  0  0  0  0  0
   -2.1171   67.7464   67.2406 H   0  0  0  0  0  0  0  0  0  0  0  0
   -1.8170   65.9754   67.2406 H   0  0  0  0  0  0  0  0  0  0  0  0
  2  1  2  0
  3  2  1  0
  4  2  1  0
  5  4  1  0
  6  5  2  0
  7  6  1  0
  7  1  1  0
  8  5  1  0
  9  7  1  0
 10  9  2  0
 11 10  1  0
 12 11  2  0
 13 12  1  0
 14 13  2  0
 14  9  1  0
 15 13  1  0
 16 15  2  0
 17 15  1  0
 18  1  1  0
 19 18  2  0
 20 18  1  0
 22 20  1  0
 22 21  1  0
 23  6  1  0
 24 23  2  0
 25 23  1  0
 26 25  1  0
  3 27  1  0
  3 28  1  0
  3 29  1  0
  4 30  1  0
  7 31  1  1
  8 32  1  0
  8 33  1  0
  8 34  1  0
 10 35  1  0
 11 36  1  0
 12 37  1  0
 14 38  1  0
 21 39  1  0
 21 40  1  0
 21 41  1  0
 22 42  1  0
 22 43  1  0
 26 44  1  0
 26 45  1  0
 26 46  1  0
M  CHG  2  15   1  17  -1
M  END
>  <score>  (2) 
-9.005

$$$$
=
     RDKit          3D

 46 47  0  0  0  0  0  0  0  0999 V2000
    1.8620   68.2820   63.9900 C   0  0  0  0  0  0  0  0  0  0  0  0
    0.6990   68.7800   63.5170 C   0  0  0  0  0  0  0  0  0  0  0  0
    0.3560   68.9190   62.0550 C   0  0  0  0  0  0  0  0  0  0  0  0
   -0.2960   69.1550   64.4080 N   0  0  0  0  0  0  0  0  0  0  0  0
   -0.2440   68.9400   65.7780 C   0  0  0  0  0  0  0  0  0  0  0  0
    0.8880   68.4480   66.3320 C   0  0  0  0  0  0  0  0  0  0  0  0
    2.1080   68.1050   65.4840 C   0  0  2  0  0  0  0  0  0  0  0  0
   -1.5130   69.2330   66.5370 C   0  0  0  0  0  0  0  0  0  0  0  0
    3.3340   68.9100   65.9360 C   0  0  0  0  0  0  0  0  0  0  0  0
    4.3880   69.1920   65.0470 C   0  0  0  0  0  0  0  0  0  0  0  0
    5.5010   69.9230   65.4640 C   0  0  0  0  0  0  0  0  0  0  0  0
    5.5820   70.3870   66.7770 C   0  0  0  0  0  0  0  0  0  0  0  0
    4.5390   70.1130   67.6710 C   0  0  0  0  0  0  0  0  0  0  0  0
    3.4180   69.3790   67.2590 C   0  0  0  0  0  0  0  0  0  0  0  0
    4.6240   70.6010   69.0530 N   0  0  0  0  0  4  0  0  0  0  0  0
    5.7530   70.7500   69.5440 O   0  0  0  0  0  0  0  0  0  0  0  0
    3.5650   70.8370   69.6510 O   0  0  0  0  0  1  0  0  0  0  0  0
    2.9760   67.8350   63.1270 C   0  0  0  0  0  0  0  0  0  0  0  0
    3.5560   68.5700   62.3440 O   0  0  0  0  0  0  0  0  0  0  0  0
    3.1810   66.5030   63.2790 O   0  0  0  0  0  0  0  0  0  0  0  0
    4.7220   64.8190   63.9790 C   0  0  0  0  0  0  0  0  0  0  0  0
    4.5570   66.1120   63.2030 C   0  0  0  0  0  0  0  0  0  0  0  0
    1.0410   68.1600   67.7730 C   0  0  0  0  0  0  0  0  0  0  0  0
    1.0350   69.0240   68.6350 O   0  0  0  0  0  0  0  0  0  0  0  0
    1.0980   66.8200   67.9820 O   0  0  0  0  0  0  0  0  0  0  0  0
    1.0510   66.4510   69.3600 C   0  0  0  0  0  0  0  0  0  0  0  0
   -0.6592   69.3304   61.9541 H   0  0  0  0  0  0  0  0  0  0  0  0
    1.0758   69.5964   61.5723 H   0  0  0  0  0  0  0  0  0  0  0  0
    0.4012   67.9316   61.5723 H   0  0  0  0  0  0  0  0  0  0  0  0
   -1.1297   69.6247   64.0270 H   0  0  0  0  0  0  0  0  0  0  0  0
    2.3089   67.0354   65.6439 H   0  0  0  0  0  0  0  0  0  0  0  0
   -1.3129   69.1868   67.6177 H   0  0  0  0  0  0  0  0  0  0  0  0
   -1.8740   70.2381   66.2736 H   0  0  0  0  0  0  0  0  0  0  0  0
   -2.2781   68.4879   66.2736 H   0  0  0  0  0  0  0  0  0  0  0  0
    4.3336   68.8312   64.0093 H   0  0  0  0  0  0  0  0  0  0  0  0
    6.3161   70.1338   64.7560 H   0  0  0  0  0  0  0  0  0  0  0  0
    6.4583   70.9637   67.1079 H   0  0  0  0  0  0  0  0  0  0  0  0
    2.6050   69.1701   67.9699 H   0  0  0  0  0  0  0  0  0  0  0  0
    4.6947   65.0327   65.0577 H   0  0  0  0  0  0  0  0  0  0  0  0
    3.9045   64.1297   63.7210 H   0  0  0  0  0  0  0  0  0  0  0  0
    5.6864   64.3570   63.7210 H   0  0  0  0  0  0  0  0  0  0  0  0
    4.8429   65.9556   62.1524 H   0  0  0  0  0  0  0  0  0  0  0  0
    5.2006   66.8966   63.6276 H   0  0  0  0  0  0  0  0  0  0  0  0
    1.1654   67.3494   69.9843 H   0  0  0  0  0  0  0  0  0  0  0  0
    0.0847   65.9731   69.5789 H   0  0  0  0  0  0  0  0  0  0  0  0
    1.8666   65.7461   69.5789 H   0  0  0  0  0  0  0  0  0  0  0  0
  2  1  2  0
  3  2  1  0
  4  2  1  0
  5  4  1  0
  6  5  2  0
  7  6  1  0
  7  1  1  0
  8  5  1  0
  9  7  1  0
 10  9  2  0
 11 10  1  0
 12 11  2  0
 13 12  1  0
 14 13  2  0
 14  9  1  0
 15 13  1  0
 16 15  2  0
 17 15  1  0
 18  1  1  0
 19 18  2  0
 20 18  1  0
 22 20  1  0
 22 21  1  0
 23  6  1  0
 24 23  2  0
 25 23  1  0
 26 25  1  0
  3 27  1  0
  3 28  1  0
  3 29  1  0
  4 30  1  0
  7 31  1  6
  8 32  1  0
  8 33  1  0
  8 34  1  0
 10 35  1  0
 11 36  1  0
 12 37  1  0
 14 38  1  0
 21 39  1  0
 21 40  1  0
 21 41  1  0
 22 42  1  0
 22 43  1  0
 26 44  1  0
 26 45  1  0
 26 46  1  0
M  CHG  2  15   1  17  -1
M  END
>  <score>  (3) 
-8.422

$$$$
=
     RDKit          3D

 46 47  0  0  0  0  0  0  0  0999 V2000
    3.0120   69.0420   66.7520 C   0  0  0  0  0  0  0  0  0  0  0  0
    4.1740   69.7310   66.7350 C   0  0  0  0  0  0  0  0  0  0  0  0
    4.6350   70.6650   67.8260 C   0  0  0  0  0  0  0  0  0  0  0  0
    5.0560   69.5560   65.6780 N   0  0  0  0  0  0  0  0  0  0  0  0
    4.8970   68.6130   64.6720 C   0  0  0  0  0  0  0  0  0  0  0  0
    3.7590   67.8840   64.6160 C   0  0  0  0  0  0  0  0  0  0  0  0
    2.6470   68.0590   65.6460 C   0  0  2  0  0  0  0  0  0  0  0  0
    6.0690   68.4460   63.7390 C   0  0  0  0  0  0  0  0  0  0  0  0
    1.3300   68.4630   64.9670 C   0  0  0  0  0  0  0  0  0  0  0  0
    1.3150   68.9670   63.6530 C   0  0  0  0  0  0  0  0  0  0  0  0
    0.1150   69.3350   63.0420 C   0  0  0  0  0  0  0  0  0  0  0  0
   -1.0910   69.2050   63.7320 C   0  0  0  0  0  0  0  0  0  0  0  0
   -1.0870   68.7040   65.0390 C   0  0  0  0  0  0  0  0  0  0  0  0
    0.1150   68.3330   65.6600 C   0  0  0  0  0  0  0  0  0  0  0  0
   -2.3560   68.5670   65.7660 N   0  0  0  0  0  4  0  0  0  0  0  0
   -3.3590   69.1110   65.2800 O   0  0  0  0  0  0  0  0  0  0  0  0
   -2.3540   67.9180   66.8200 O   0  0  0  0  0  1  0  0  0  0  0  0
    2.0150   69.1400   67.8390 C   0  0  0  0  0  0  0  0  0  0  0  0
    1.3180   70.1240   68.0240 O   0  0  0  0  0  0  0  0  0  0  0  0
    2.0620   68.0320   68.6200 O   0  0  0  0  0  0  0  0  0  0  0  0
    0.9270   66.3870   69.9250 C   0  0  0  0  0  0  0  0  0  0  0  0
    0.7980   67.3800   68.7860 C   0  0  0  0  0  0  0  0  0  0  0  0
    3.4990   66.8400   63.6030 C   0  0  0  0  0  0  0  0  0  0  0  0
    3.5100   67.0540   62.4020 O   0  0  0  0  0  0  0  0  0  0  0  0
    3.3410   65.6330   64.2020 O   0  0  0  0  0  0  0  0  0  0  0  0
    4.3790   64.7010   63.8970 C   0  0  0  0  0  0  0  0  0  0  0  0
    4.4151   70.2194   68.8074 H   0  0  0  0  0  0  0  0  0  0  0  0
    5.7185   70.8309   67.7331 H   0  0  0  0  0  0  0  0  0  0  0  0
    4.1077   71.6259   67.7331 H   0  0  0  0  0  0  0  0  0  0  0  0
    5.8843   70.1669   65.6373 H   0  0  0  0  0  0  0  0  0  0  0  0
    2.5103   67.0802   66.1290 H   0  0  0  0  0  0  0  0  0  0  0  0
    6.9896   68.3148   64.3266 H   0  0  0  0  0  0  0  0  0  0  0  0
    5.9096   67.5615   63.1048 H   0  0  0  0  0  0  0  0  0  0  0  0
    6.1630   69.3398   63.1048 H   0  0  0  0  0  0  0  0  0  0  0  0
    2.2605   69.0722   63.1007 H   0  0  0  0  0  0  0  0  0  0  0  0
    0.1201   69.7282   62.0147 H   0  0  0  0  0  0  0  0  0  0  0  0
   -2.0377   69.4941   63.2523 H   0  0  0  0  0  0  0  0  0  0  0  0
    0.1061   67.9410   66.6877 H   0  0  0  0  0  0  0  0  0  0  0  0
    0.8578   66.9193   70.8851 H   0  0  0  0  0  0  0  0  0  0  0  0
    0.1177   65.6450   69.8580 H   0  0  0  0  0  0  0  0  0  0  0  0
    1.8990   65.8764   69.8580 H   0  0  0  0  0  0  0  0  0  0  0  0
    0.0234   68.1235   69.0252 H   0  0  0  0  0  0  0  0  0  0  0  0
    0.5114   66.8619   67.8589 H   0  0  0  0  0  0  0  0  0  0  0  0
    4.8104   64.3137   64.8318 H   0  0  0  0  0  0  0  0  0  0  0  0
    3.9631   63.8674   63.3121 H   0  0  0  0  0  0  0  0  0  0  0  0
    5.1632   65.2040   63.3121 H   0  0  0  0  0  0  0  0  0  0  0  0
  2  1  2  0
  3  2  1  0
  4  2  1  0
  5  4  1  0
  6  5  2  0
  7  6  1  0
  7  1  1  0
  8  5  1  0
  9  7  1  0
 10  9  2  0
 11 10  1  0
 12 11  2  0
 13 12  1  0
 14 13  2  0
 14  9  1  0
 15 13  1  0
 16 15  2  0
 17 15  1  0
 18  1  1  0
 19 18  2  0
 20 18  1  0
 22 20  1  0
 22 21  1  0
 23  6  1  0
 24 23  2  0
 25 23  1  0
 26 25  1  0
  3 27  1  0
  3 28  1  0
  3 29  1  0
  4 30  1  0
  7 31  1  1
  8 32  1  0
  8 33  1  0
  8 34  1  0
 10 35  1  0
 11 36  1  0
 12 37  1  0
 14 38  1  0
 21 39  1  0
 21 40  1  0
 21 41  1  0
 22 42  1  0
 22 43  1  0
 26 44  1  0
 26 45  1  0
 26 46  1  0
M  CHG  2  15   1  17  -1
M  END
>  <score>  (4) 
-8.377

$$$$
=
     RDKit          3D

 46 47  0  0  0  0  0  0  0  0999 V2000
    3.4680   68.0430   62.8530 C   0  0  0  0  0  0  0  0  0  0  0  0
    2.7930   68.5550   61.8010 C   0  0  0  0  0  0  0  0  0  0  0  0
    3.3490   68.6850   60.4050 C   0  0  0  0  0  0  0  0  0  0  0  0
    1.4740   68.9550   61.9650 N   0  0  0  0  0  0  0  0  0  0  0  0
    0.7310   68.7530   63.1190 C   0  0  0  0  0  0  0  0  0  0  0  0
    1.3340   68.2480   64.2200 C   0  0  0  0  0  0  0  0  0  0  0  0
    2.8130   67.8770   64.2200 C   0  0  2  0  0  0  0  0  0  0  0  0
   -0.7380   69.0740   63.0180 C   0  0  0  0  0  0  0  0  0  0  0  0
    3.5770   68.6670   65.2920 C   0  0  0  0  0  0  0  0  0  0  0  0
    4.9440   68.9650   65.1400 C   0  0  0  0  0  0  0  0  0  0  0  0
    5.6340   69.6820   66.1190 C   0  0  0  0  0  0  0  0  0  0  0  0
    4.9700   70.1150   67.2680 C   0  0  0  0  0  0  0  0  0  0  0  0
    3.6090   69.8240   67.4290 C   0  0  0  0  0  0  0  0  0  0  0  0
    2.9110   69.1040   66.4500 C   0  0  0  0  0  0  0  0  0  0  0  0
    2.9110   70.2800   68.6380 N   0  0  0  0  0  4  0  0  0  0  0  0
    1.7170   70.5960   68.5290 O   0  0  0  0  0  0  0  0  0  0  0  0
    3.5520   70.3230   69.6970 O   0  0  0  0  0  1  0  0  0  0  0  0
    4.8660   67.5690   62.7810 C   0  0  0  0  0  0  0  0  0  0  0  0
    5.8270   68.3190   62.7170 O   0  0  0  0  0  0  0  0  0  0  0  0
    4.8990   66.2150   62.7100 O   0  0  0  0  0  0  0  0  0  0  0  0
    4.4810   64.1200   63.7770 C   0  0  0  0  0  0  0  0  0  0  0  0
    4.8960   65.5640   63.9860 C   0  0  0  0  0  0  0  0  0  0  0  0
    0.6310   67.9720   65.4900 C   0  0  0  0  0  0  0  0  0  0  0  0
    0.6820   66.8970   66.0660 O   0  0  0  0  0  0  0  0  0  0  0  0
    0.0170   69.0950   65.9400 O   0  0  0  0  0  0  0  0  0  0  0  0
   -0.8170   68.8750   67.0780 C   0  0  0  0  0  0  0  0  0  0  0  0
    4.4189   68.9351   60.4582 H   0  0  0  0  0  0  0  0  0  0  0  0
    3.2213   67.7328   59.8693 H   0  0  0  0  0  0  0  0  0  0  0  0
    2.8123   69.4819   59.8693 H   0  0  0  0  0  0  0  0  0  0  0  0
    1.0159   69.4342   61.1767 H   0  0  0  0  0  0  0  0  0  0  0  0
    2.8659   66.8059   64.4649 H   0  0  0  0  0  0  0  0  0  0  0  0
   -1.1633   69.1669   64.0282 H   0  0  0  0  0  0  0  0  0  0  0  0
   -0.8697   70.0221   62.4760 H   0  0  0  0  0  0  0  0  0  0  0  0
   -1.2532   68.2672   62.4760 H   0  0  0  0  0  0  0  0  0  0  0  0
    5.4758   68.6285   64.2378 H   0  0  0  0  0  0  0  0  0  0  0  0
    6.7025   69.9061   65.9848 H   0  0  0  0  0  0  0  0  0  0  0  0
    5.5111   70.6803   68.0410 H   0  0  0  0  0  0  0  0  0  0  0  0
    1.8427   68.8810   66.5878 H   0  0  0  0  0  0  0  0  0  0  0  0
    4.3412   63.6336   64.7537 H   0  0  0  0  0  0  0  0  0  0  0  0
    3.5372   64.0877   63.2129 H   0  0  0  0  0  0  0  0  0  0  0  0
    5.2636   63.5915   63.2129 H   0  0  0  0  0  0  0  0  0  0  0  0
    5.9031   65.6025   64.4266 H   0  0  0  0  0  0  0  0  0  0  0  0
    4.1955   66.0669   64.6689 H   0  0  0  0  0  0  0  0  0  0  0  0
   -0.2320   69.0293   67.9967 H   0  0  0  0  0  0  0  0  0  0  0  0
   -1.6598   69.5815   67.0570 H   0  0  0  0  0  0  0  0  0  0  0  0
   -1.2017   67.8447   67.0570 H   0  0  0  0  0  0  0  0  0  0  0  0
  2  1  2  0
  3  2  1  0
  4  2  1  0
  5  4  1  0
  6  5  2  0
  7  6  1  0
  7  1  1  0
  8  5  1  0
  9  7  1  0
 10  9  2  0
 11 10  1  0
 12 11  2  0
 13 12  1  0
 14 13  2  0
 14  9  1  0
 15 13  1  0
 16 15  2  0
 17 15  1  0
 18  1  1  0
 19 18  2  0
 20 18  1  0
 22 20  1  0
 22 21  1  0
 23  6  1  0
 24 23  2  0
 25 23  1  0
 26 25  1  0
  3 27  1  0
  3 28  1  0
  3 29  1  0
  4 30  1  0
  7 31  1  1
  8 32  1  0
  8 33  1  0
  8 34  1  0
 10 35  1  0
 11 36  1  0
 12 37  1  0
 14 38  1  0
 21 39  1  0
 21 40  1  0
 21 41  1  0
 22 42  1  0
 22 43  1  0
 26 44  1  0
 26 45  1  0
 26 46  1  0
M  CHG  2  15   1  17  -1
M  END
>  <score>  (5) 
-8.216

$$$$
=
     RDKit          3D

 46 47  0  0  0  0  0  0  0  0999 V2000
    3.0470   68.9230   66.5460 C   0  0  0  0  0  0  0  0  0  0  0  0
    4.1870   69.6480   66.5630 C   0  0  0  0  0  0  0  0  0  0  0  0
    4.6390   70.5100   67.7150 C   0  0  0  0  0  0  0  0  0  0  0  0
    5.0550   69.5810   65.4820 N   0  0  0  0  0  0  0  0  0  0  0  0
    4.9070   68.7130   64.4100 C   0  0  0  0  0  0  0  0  0  0  0  0
    3.7910   67.9550   64.3160 C   0  0  0  0  0  0  0  0  0  0  0  0
    2.6930   68.0160   65.3730 C   0  0  2  0  0  0  0  0  0  0  0  0
    6.0660   68.6540   63.4480 C   0  0  0  0  0  0  0  0  0  0  0  0
    1.3520   68.4280   64.7480 C   0  0  0  0  0  0  0  0  0  0  0  0
    0.1490   68.3160   65.4690 C   0  0  0  0  0  0  0  0  0  0  0  0
   -1.0670   68.6910   64.8950 C   0  0  0  0  0  0  0  0  0  0  0  0
   -1.1030   69.1850   63.5910 C   0  0  0  0  0  0  0  0  0  0  0  0
    0.0890   69.3010   62.8640 C   0  0  0  0  0  0  0  0  0  0  0  0
    1.3140   68.9260   63.4340 C   0  0  0  0  0  0  0  0  0  0  0  0
    0.0510   69.8210   61.4910 N   0  0  0  0  0  4  0  0  0  0  0  0
    1.0950   69.7620   60.8240 O   0  0  0  0  0  0  0  0  0  0  0  0
   -1.0180   70.2890   61.0780 O   0  0  0  0  0  1  0  0  0  0  0  0
    2.0670   68.9060   67.6530 C   0  0  0  0  0  0  0  0  0  0  0  0
    1.4930   69.9050   68.0560 O   0  0  0  0  0  0  0  0  0  0  0  0
    1.9800   67.6610   68.1830 O   0  0  0  0  0  0  0  0  0  0  0  0
    1.0120   66.4640   70.0080 C   0  0  0  0  0  0  0  0  0  0  0  0
    0.7370   67.3930   68.8410 C   0  0  0  0  0  0  0  0  0  0  0  0
    3.5440   66.9830   63.2310 C   0  0  0  0  0  0  0  0  0  0  0  0
    3.5830   67.2750   62.0460 O   0  0  0  0  0  0  0  0  0  0  0  0
    3.3640   65.7400   63.7440 O   0  0  0  0  0  0  0  0  0  0  0  0
    4.5750   64.9980   63.8910 C   0  0  0  0  0  0  0  0  0  0  0  0
    4.3810   70.0180   68.6644 H   0  0  0  0  0  0  0  0  0  0  0  0
    5.7283   70.6533   67.6604 H   0  0  0  0  0  0  0  0  0  0  0  0
    4.1374   71.4875   67.6604 H   0  0  0  0  0  0  0  0  0  0  0  0
    5.8637   70.2189   65.4753 H   0  0  0  0  0  0  0  0  0  0  0  0
    2.5955   66.9992   65.7812 H   0  0  0  0  0  0  0  0  0  0  0  0
    7.0089   68.6060   64.0124 H   0  0  0  0  0  0  0  0  0  0  0  0
    5.9718   67.7595   62.8148 H   0  0  0  0  0  0  0  0  0  0  0  0
    6.0631   69.5535   62.8148 H   0  0  0  0  0  0  0  0  0  0  0  0
    0.1669   67.9280   66.4981 H   0  0  0  0  0  0  0  0  0  0  0  0
   -1.9987   68.5967   65.4722 H   0  0  0  0  0  0  0  0  0  0  0  0
   -2.0601   69.4813   63.1369 H   0  0  0  0  0  0  0  0  0  0  0  0
    2.2437   69.0214   62.8539 H   0  0  0  0  0  0  0  0  0  0  0  0
    0.8520   67.0045   70.9526 H   0  0  0  0  0  0  0  0  0  0  0  0
    0.3305   65.6019   69.9589 H   0  0  0  0  0  0  0  0  0  0  0  0
    2.0529   66.1118   69.9589 H   0  0  0  0  0  0  0  0  0  0  0  0
    0.2992   68.3330   69.2080 H   0  0  0  0  0  0  0  0  0  0  0  0
    0.0284   66.9261   68.1411 H   0  0  0  0  0  0  0  0  0  0  0  0
    4.7949   64.8632   64.9603 H   0  0  0  0  0  0  0  0  0  0  0  0
    4.4623   64.0137   63.4130 H   0  0  0  0  0  0  0  0  0  0  0  0
    5.4007   65.5454   63.4130 H   0  0  0  0  0  0  0  0  0  0  0  0
  2  1  2  0
  3  2  1  0
  4  2  1  0
  5  4  1  0
  6  5  2  0
  7  6  1  0
  7  1  1  0
  8  5  1  0
  9  7  1  0
 10  9  2  0
 11 10  1  0
 12 11  2  0
 13 12  1  0
 14 13  2  0
 14  9  1  0
 15 13  1  0
 16 15  2  0
 17 15  1  0
 18  1  1  0
 19 18  2  0
 20 18  1  0
 22 20  1  0
 22 21  1  0
 23  6  1  0
 24 23  2  0
 25 23  1  0
 26 25  1  0
  3 27  1  0
  3 28  1  0
  3 29  1  0
  4 30  1  0
  7 31  1  1
  8 32  1  0
  8 33  1  0
  8 34  1  0
 10 35  1  0
 11 36  1  0
 12 37  1  0
 14 38  1  0
 21 39  1  0
 21 40  1  0
 21 41  1  0
 22 42  1  0
 22 43  1  0
 26 44  1  0
 26 45  1  0
 26 46  1  0
M  CHG  2  15   1  17  -1
M  END
>  <score>  (6) 
-8.074

$$$$
=
     RDKit          3D

 46 47  0  0  0  0  0  0  0  0999 V2000
    0.4560   63.2340   72.2680 C   0  0  0  0  0  0  0  0  0  0  0  0
    0.0250   64.1390   73.1750 C   0  0  0  0  0  0  0  0  0  0  0  0
   -0.1120   65.6180   72.9130 C   0  0  0  0  0  0  0  0  0  0  0  0
   -0.3770   63.7090   74.4310 N   0  0  0  0  0  0  0  0  0  0  0  0
   -0.4950   62.3770   74.8030 C   0  0  0  0  0  0  0  0  0  0  0  0
   -0.0810   61.4090   73.9540 C   0  0  0  0  0  0  0  0  0  0  0  0
    0.4980   61.7440   72.5840 C   0  0  2  0  0  0  0  0  0  0  0  0
   -1.1440   62.1250   76.1400 C   0  0  0  0  0  0  0  0  0  0  0  0
    1.9250   61.1950   72.4420 C   0  0  0  0  0  0  0  0  0  0  0  0
    2.9550   61.6170   73.3040 C   0  0  0  0  0  0  0  0  0  0  0  0
    4.2510   61.1160   73.1700 C   0  0  0  0  0  0  0  0  0  0  0  0
    4.5410   60.1830   72.1730 C   0  0  0  0  0  0  0  0  0  0  0  0
    3.5240   59.7550   71.3110 C   0  0  0  0  0  0  0  0  0  0  0  0
    2.2200   60.2550   71.4400 C   0  0  0  0  0  0  0  0  0  0  0  0
    3.8300   58.7740   70.2620 N   0  0  0  0  0  4  0  0  0  0  0  0
    4.0900   59.2040   69.1290 O   0  0  0  0  0  0  0  0  0  0  0  0
    3.8100   57.5740   70.5680 O   0  0  0  0  0  1  0  0  0  0  0  0
    0.8860   63.5840   70.8980 C   0  0  0  0  0  0  0  0  0  0  0  0
    0.1740   63.4490   69.9160 O   0  0  0  0  0  0  0  0  0  0  0  0
    2.1830   63.9820   70.9010 O   0  0  0  0  0  0  0  0  0  0  0  0
    4.4110   63.3950   70.2760 C   0  0  0  0  0  0  0  0  0  0  0  0
    2.9620   63.4370   69.8300 C   0  0  0  0  0  0  0  0  0  0  0  0
   -0.1820   59.9630   74.2420 C   0  0  0  0  0  0  0  0  0  0  0  0
   -1.0090   59.2320   73.7210 O   0  0  0  0  0  0  0  0  0  0  0  0
    0.8120   59.5800   75.0810 O   0  0  0  0  0  0  0  0  0  0  0  0
    1.3970   58.3220   74.7420 C   0  0  0  0  0  0  0  0  0  0  0  0
   -0.1619   66.1569   73.8706 H   0  0  0  0  0  0  0  0  0  0  0  0
    0.7573   65.9707   72.3386 H   0  0  0  0  0  0  0  0  0  0  0  0
   -1.0313   65.8050   72.3386 H   0  0  0  0  0  0  0  0  0  0  0  0
   -0.6031   64.4262   75.1348 H   0  0  0  0  0  0  0  0  0  0  0  0
   -0.1474   61.2487   71.8437 H   0  0  0  0  0  0  0  0  0  0  0  0
   -0.4444   62.3967   76.9442 H   0  0  0  0  0  0  0  0  0  0  0  0
   -2.0557   62.7345   76.2257 H   0  0  0  0  0  0  0  0  0  0  0  0
   -1.4055   61.0600   76.2257 H   0  0  0  0  0  0  0  0  0  0  0  0
    2.7357   62.3510   74.0933 H   0  0  0  0  0  0  0  0  0  0  0  0
    5.0448   61.4569   73.8510 H   0  0  0  0  0  0  0  0  0  0  0  0
    5.5615   59.7867   72.0653 H   0  0  0  0  0  0  0  0  0  0  0  0
    1.4288   59.9116   70.7573 H   0  0  0  0  0  0  0  0  0  0  0  0
    4.4565   63.3937   71.3751 H   0  0  0  0  0  0  0  0  0  0  0  0
    4.8877   62.4827   69.8882 H   0  0  0  0  0  0  0  0  0  0  0  0
    4.9398   64.2782   69.8882 H   0  0  0  0  0  0  0  0  0  0  0  0
    2.6142   62.4200   69.5959 H   0  0  0  0  0  0  0  0  0  0  0  0
    2.8584   64.0586   68.9284 H   0  0  0  0  0  0  0  0  0  0  0  0
    1.6510   57.7758   75.6624 H   0  0  0  0  0  0  0  0  0  0  0  0
    0.6809   57.7319   74.1512 H   0  0  0  0  0  0  0  0  0  0  0  0
    2.3097   58.4893   74.1512 H   0  0  0  0  0  0  0  0  0  0  0  0
  2  1  2  0
  3  2  1  0
  4  2  1  0
  5  4  1  0
  6  5  2  0
  7  6  1  0
  7  1  1  0
  8  5  1  0
  9  7  1  0
 10  9  2  0
 11 10  1  0
 12 11  2  0
 13 12  1  0
 14 13  2  0
 14  9  1  0
 15 13  1  0
 16 15  2  0
 17 15  1  0
 18  1  1  0
 19 18  2  0
 20 18  1  0
 22 20  1  0
 22 21  1  0
 23  6  1  0
 24 23  2  0
 25 23  1  0
 26 25  1  0
  3 27  1  0
  3 28  1  0
  3 29  1  0
  4 30  1  0
  7 31  1  6
  8 32  1  0
  8 33  1  0
  8 34  1  0
 10 35  1  0
 11 36  1  0
 12 37  1  0
 14 38  1  0
 21 39  1  0
 21 40  1  0
 21 41  1  0
 22 42  1  0
 22 43  1  0
 26 44  1  0
 26 45  1  0
 26 46  1  0
M  CHG  2  15   1  17  -1
M  END
>  <score>  (7) 
-8.018

$$$$
=
     RDKit          3D

 46 47  0  0  0  0  0  0  0  0999 V2000
    1.3340   68.3200   64.1880 C   0  0  0  0  0  0  0  0  0  0  0  0
    0.3720   68.8150   63.3780 C   0  0  0  0  0  0  0  0  0  0  0  0
    0.5360   69.0580   61.8990 C   0  0  0  0  0  0  0  0  0  0  0  0
   -0.8860   69.0830   63.8990 N   0  0  0  0  0  0  0  0  0  0  0  0
   -1.2870   68.7610   65.1870 C   0  0  0  0  0  0  0  0  0  0  0  0
   -0.3820   68.2650   66.0620 C   0  0  0  0  0  0  0  0  0  0  0  0
    1.0710   68.0330   65.6610 C   0  0  2  0  0  0  0  0  0  0  0  0
   -2.7530   68.9490   65.4850 C   0  0  0  0  0  0  0  0  0  0  0  0
    2.0220   68.8410   66.5550 C   0  0  0  0  0  0  0  0  0  0  0  0
    1.5960   69.3520   67.7960 C   0  0  0  0  0  0  0  0  0  0  0  0
    2.4640   70.0880   68.6040 C   0  0  0  0  0  0  0  0  0  0  0  0
    3.7750   70.3260   68.1870 C   0  0  0  0  0  0  0  0  0  0  0  0
    4.2100   69.8210   66.9560 C   0  0  0  0  0  0  0  0  0  0  0  0
    3.3430   69.0820   66.1390 C   0  0  0  0  0  0  0  0  0  0  0  0
    5.5890   70.0720   66.5180 N   0  0  0  0  0  4  0  0  0  0  0  0
    6.0930   71.1690   66.8020 O   0  0  0  0  0  0  0  0  0  0  0  0
    6.1700   69.1770   65.8890 O   0  0  0  0  0  1  0  0  0  0  0  0
    2.6990   67.9810   63.7310 C   0  0  0  0  0  0  0  0  0  0  0  0
    3.1900   66.8700   63.8480 O   0  0  0  0  0  0  0  0  0  0  0  0
    3.3230   69.0880   63.2570 O   0  0  0  0  0  0  0  0  0  0  0  0
    5.6050   69.1000   62.5580 C   0  0  0  0  0  0  0  0  0  0  0  0
    4.1730   68.8430   62.1320 C   0  0  0  0  0  0  0  0  0  0  0  0
   -0.7080   67.8690   67.4480 C   0  0  0  0  0  0  0  0  0  0  0  0
   -1.4280   68.5260   68.1820 O   0  0  0  0  0  0  0  0  0  0  0  0
   -0.1700   66.6550   67.7280 O   0  0  0  0  0  0  0  0  0  0  0  0
   -0.2260   66.3090   69.1120 C   0  0  0  0  0  0  0  0  0  0  0  0
    1.1450   69.9603   61.7410 H   0  0  0  0  0  0  0  0  0  0  0  0
    1.0358   68.1930   61.4385 H   0  0  0  0  0  0  0  0  0  0  0  0
   -0.4531   69.1979   61.4385 H   0  0  0  0  0  0  0  0  0  0  0  0
   -1.5685   69.5531   63.2874 H   0  0  0  0  0  0  0  0  0  0  0  0
    1.2695   66.9615   65.8112 H   0  0  0  0  0  0  0  0  0  0  0  0
   -2.9062   68.9686   66.5741 H   0  0  0  0  0  0  0  0  0  0  0  0
   -3.0969   69.8986   65.0492 H   0  0  0  0  0  0  0  0  0  0  0  0
   -3.3254   68.1169   65.0492 H   0  0  0  0  0  0  0  0  0  0  0  0
    0.5651   69.1686   68.1332 H   0  0  0  0  0  0  0  0  0  0  0  0
    2.1149   70.4809   69.5703 H   0  0  0  0  0  0  0  0  0  0  0  0
    4.4613   70.9063   68.8213 H   0  0  0  0  0  0  0  0  0  0  0  0
    3.6960   68.6911   65.1733 H   0  0  0  0  0  0  0  0  0  0  0  0
    5.6645   69.1107   63.6563 H   0  0  0  0  0  0  0  0  0  0  0  0
    6.2534   68.3039   62.1634 H   0  0  0  0  0  0  0  0  0  0  0  0
    5.9361   70.0719   62.1634 H   0  0  0  0  0  0  0  0  0  0  0  0
    4.0637   67.7992   61.8026 H   0  0  0  0  0  0  0  0  0  0  0  0
    3.8996   69.5047   61.2969 H   0  0  0  0  0  0  0  0  0  0  0  0
   -0.0798   67.2126   69.7220 H   0  0  0  0  0  0  0  0  0  0  0  0
   -1.2073   65.8674   69.3401 H   0  0  0  0  0  0  0  0  0  0  0  0
    0.5659   65.5804   69.3401 H   0  0  0  0  0  0  0  0  0  0  0  0
  2  1  2  0
  3  2  1  0
  4  2  1  0
  5  4  1  0
  6  5  2  0
  7  6  1  0
  7  1  1  0
  8  5  1  0
  9  7  1  0
 10  9  2  0
 11 10  1  0
 12 11  2  0
 13 12  1  0
 14 13  2  0
 14  9  1  0
 15 13  1  0
 16 15  2  0
 17 15  1  0
 18  1  1  0
 19 18  2  0
 20 18  1  0
 22 20  1  0
 22 21  1  0
 23  6  1  0
 24 23  2  0
 25 23  1  0
 26 25  1  0
  3 27  1  0
  3 28  1  0
  3 29  1  0
  4 30  1  0
  7 31  1  6
  8 32  1  0
  8 33  1  0
  8 34  1  0
 10 35  1  0
 11 36  1  0
 12 37  1  0
 14 38  1  0
 21 39  1  0
 21 40  1  0
 21 41  1  0
 22 42  1  0
 22 43  1  0
 26 44  1  0
 26 45  1  0
 26 46  1  0
M  CHG  2  15   1  17  -1
M  END
>  <score>  (8) 
-7.888

$$$$
=
     RDKit          3D

 46 47  0  0  0  0  0  0  0  0999 V2000
    0.8240   62.4570   73.8180 C   0  0  0  0  0  0  0  0  0  0  0  0
    0.7050   63.2790   74.8840 C   0  0  0  0  0  0  0  0  0  0  0  0
    0.1090   64.6640   74.8380 C   0  0  0  0  0  0  0  0  0  0  0  0
    1.1020   62.8340   76.1370 N   0  0  0  0  0  0  0  0  0  0  0  0
    1.5060   61.5360   76.4160 C   0  0  0  0  0  0  0  0  0  0  0  0
    1.6540   60.6520   75.4040 C   0  0  0  0  0  0  0  0  0  0  0  0
    1.3700   61.0410   73.9560 C   0  0  2  0  0  0  0  0  0  0  0  0
    1.6950   61.2080   77.8760 C   0  0  0  0  0  0  0  0  0  0  0  0
    2.6170   60.8480   73.0820 C   0  0  0  0  0  0  0  0  0  0  0  0
    3.7770   61.6180   73.2890 C   0  0  0  0  0  0  0  0  0  0  0  0
    4.9070   61.4390   72.4890 C   0  0  0  0  0  0  0  0  0  0  0  0
    4.8990   60.4870   71.4690 C   0  0  0  0  0  0  0  0  0  0  0  0
    3.7510   59.7150   71.2550 C   0  0  0  0  0  0  0  0  0  0  0  0
    2.6120   59.8890   72.0530 C   0  0  0  0  0  0  0  0  0  0  0  0
    3.7430   58.7130   70.1810 N   0  0  0  0  0  4  0  0  0  0  0  0
    3.7290   57.5170   70.5080 O   0  0  0  0  0  0  0  0  0  0  0  0
    3.7510   59.1180   69.0100 O   0  0  0  0  0  1  0  0  0  0  0  0
    0.4120   62.8250   72.4470 C   0  0  0  0  0  0  0  0  0  0  0  0
   -0.5790   62.3700   71.8980 O   0  0  0  0  0  0  0  0  0  0  0  0
    1.3300   63.6520   71.8880 O   0  0  0  0  0  0  0  0  0  0  0  0
    3.0870   63.7870   70.2770 C   0  0  0  0  0  0  0  0  0  0  0  0
    1.6670   63.3210   70.5360 C   0  0  0  0  0  0  0  0  0  0  0  0
    2.0560   59.2430   75.5930 C   0  0  0  0  0  0  0  0  0  0  0  0
    1.3310   58.2970   75.3310 O   0  0  0  0  0  0  0  0  0  0  0  0
    3.3470   59.1740   76.0070 O   0  0  0  0  0  0  0  0  0  0  0  0
    4.1710   58.3500   75.1820 C   0  0  0  0  0  0  0  0  0  0  0  0
   -0.0484   65.0297   75.8634 H   0  0  0  0  0  0  0  0  0  0  0  0
    0.7954   65.3411   74.3085 H   0  0  0  0  0  0  0  0  0  0  0  0
   -0.8546   64.6311   74.3085 H   0  0  0  0  0  0  0  0  0  0  0  0
    1.0964   63.5125   76.9119 H   0  0  0  0  0  0  0  0  0  0  0  0
    0.5798   60.3639   73.5994 H   0  0  0  0  0  0  0  0  0  0  0  0
    1.2397   61.9981   78.4912 H   0  0  0  0  0  0  0  0  0  0  0  0
    1.2134   60.2449   78.1008 H   0  0  0  0  0  0  0  0  0  0  0  0
    2.7697   61.1418   78.1008 H   0  0  0  0  0  0  0  0  0  0  0  0
    3.7933   62.3703   74.0913 H   0  0  0  0  0  0  0  0  0  0  0  0
    5.8053   62.0496   72.6631 H   0  0  0  0  0  0  0  0  0  0  0  0
    5.7883   60.3441   70.8376 H   0  0  0  0  0  0  0  0  0  0  0  0
    1.7157   59.2767   71.8749 H   0  0  0  0  0  0  0  0  0  0  0  0
    3.5985   63.9549   71.2363 H   0  0  0  0  0  0  0  0  0  0  0  0
    3.6262   63.0187   69.7035 H   0  0  0  0  0  0  0  0  0  0  0  0
    3.0661   64.7254   69.7035 H   0  0  0  0  0  0  0  0  0  0  0  0
    1.5993   62.2328   70.3905 H   0  0  0  0  0  0  0  0  0  0  0  0
    0.9717   63.8114   69.8388 H   0  0  0  0  0  0  0  0  0  0  0  0
    4.8063   57.7147   75.8166 H   0  0  0  0  0  0  0  0  0  0  0  0
    3.5357   57.7152   74.5469 H   0  0  0  0  0  0  0  0  0  0  0  0
    4.8058   58.9853   74.5469 H   0  0  0  0  0  0  0  0  0  0  0  0
  2  1  2  0
  3  2  1  0
  4  2  1  0
  5  4  1  0
  6  5  2  0
  7  6  1  0
  7  1  1  0
  8  5  1  0
  9  7  1  0
 10  9  2  0
 11 10  1  0
 12 11  2  0
 13 12  1  0
 14 13  2  0
 14  9  1  0
 15 13  1  0
 16 15  2  0
 17 15  1  0
 18  1  1  0
 19 18  2  0
 20 18  1  0
 22 20  1  0
 22 21  1  0
 23  6  1  0
 24 23  2  0
 25 23  1  0
 26 25  1  0
  3 27  1  0
  3 28  1  0
  3 29  1  0
  4 30  1  0
  7 31  1  6
  8 32  1  0
  8 33  1  0
  8 34  1  0
 10 35  1  0
 11 36  1  0
 12 37  1  0
 14 38  1  0
 21 39  1  0
 21 40  1  0
 21 41  1  0
 22 42  1  0
 22 43  1  0
 26 44  1  0
 26 45  1  0
 26 46  1  0
M  CHG  2  15   1  17  -1
M  END
>  <score>  (9) 
-7.748

$$$$
