=
     RDKit          3D

 30 31  0  0  0  0  0  0  0  0999 V2000
    3.2970   68.2780   64.5290 C   0  0  0  0  0  0  0  0  0  0  0  0
    3.1140   66.7750   64.8590 C   0  0  0  0  0  0  0  0  0  0  0  0
    2.3970   66.3530   65.7670 O   0  0  0  0  0  0  0  0  0  0  0  0
    3.7380   65.8600   64.0610 N   0  0  0  0  0  0  0  0  0  0  0  0
    4.1980   66.2080   62.7670 C   0  0  0  0  0  0  0  0  0  0  0  0
    4.9260   67.4220   62.8360 N   0  0  0  0  0  0  0  0  0  0  0  0
    4.4620   68.4990   63.5340 C   0  0  0  0  0  0  0  0  0  0  0  0
    4.9810   69.5930   63.3060 O   0  0  0  0  0  0  0  0  0  0  0  0
    3.5220   69.0310   65.8610 C   0  0  0  0  0  0  0  0  0  0  0  0
    4.8020   69.4850   66.2340 C   0  0  0  0  0  0  0  0  0  0  0  0
    5.0180   70.1360   67.4530 C   0  0  0  0  0  0  0  0  0  0  0  0
    3.9650   70.3280   68.3390 C   0  0  0  0  0  0  0  0  0  0  0  0
    2.6960   69.8620   68.0110 C   0  0  0  0  0  0  0  0  0  0  0  0
    2.4800   69.2130   66.7910 C   0  0  0  0  0  0  0  0  0  0  0  0
    2.0980   68.7310   62.2430 C   0  0  0  0  0  0  0  0  0  0  0  0
    1.9940   68.6870   63.7660 C   0  0  0  0  0  0  0  0  0  0  0  0
    3.8769   64.8994   64.4058 H   0  0  0  0  0  0  0  0  0  0  0  0
    4.8507   65.4102   62.3828 H   0  0  0  0  0  0  0  0  0  0  0  0
    3.3377   66.3337   62.0931 H   0  0  0  0  0  0  0  0  0  0  0  0
    5.8293   67.4933   62.3463 H   0  0  0  0  0  0  0  0  0  0  0  0
    5.6500   69.3242   65.5521 H   0  0  0  0  0  0  0  0  0  0  0  0
    6.0245   70.4971   67.7110 H   0  0  0  0  0  0  0  0  0  0  0  0
    4.1340   70.8457   69.2947 H   0  0  0  0  0  0  0  0  0  0  0  0
    1.8607   70.0042   68.7125 H   0  0  0  0  0  0  0  0  0  0  0  0
    1.4743   68.8365   66.5526 H   0  0  0  0  0  0  0  0  0  0  0  0
    3.0755   69.1446   61.9540 H   0  0  0  0  0  0  0  0  0  0  0  0
    1.9967   67.7129   61.8390 H   0  0  0  0  0  0  0  0  0  0  0  0
    1.2968   69.3672   61.8390 H   0  0  0  0  0  0  0  0  0  0  0  0
    1.7010   69.6889   64.1128 H   0  0  0  0  0  0  0  0  0  0  0  0
    1.2583   67.9008   63.9912 H   0  0  0  0  0  0  0  0  0  0  0  0
  2  1  1  0
  3  2  2  0
  4  2  1  0
  5  4  1  0
  6  5  1  0
  7  6  1  0
  7  1  1  0
  8  7  2  0
  9  1  1  0
 10  9  2  0
 11 10  1  0
 12 11  2  0
 13 12  1  0
 14 13  2  0
 14  9  1  0
 16 15  1  0
 16  1  1  0
  4 17  1  0
  5 18  1  0
  5 19  1  0
  6 20  1  0
 10 21  1  0
 11 22  1  0
 12 23  1  0
 13 24  1  0
 14 25  1  0
 15 26  1  0
 15 27  1  0
 15 28  1  0
 16 29  1  0
 16 30  1  0
M  END
>  <score>  (1) 
-8.722

$$$$
=
     RDKit          3D

 30 31  0  0  0  0  0  0  0  0999 V2000
    3.7600   68.2990   63.9070 C   0  0  0  0  0  0  0  0  0  0  0  0
    4.8270   68.7000   62.8570 C   0  0  0  0  0  0  0  0  0  0  0  0
    6.0390   68.7200   63.0810 O   0  0  0  0  0  0  0  0  0  0  0  0
    4.4080   68.9930   61.5910 N   0  0  0  0  0  0  0  0  0  0  0  0
    3.1370   68.5760   61.1250 C   0  0  0  0  0  0  0  0  0  0  0  0
    2.1510   68.9010   62.0890 N   0  0  0  0  0  0  0  0  0  0  0  0
    2.3310   68.6420   63.4170 C   0  0  0  0  0  0  0  0  0  0  0  0
    1.3370   68.6670   64.1440 O   0  0  0  0  0  0  0  0  0  0  0  0
    4.1060   69.0180   65.2320 C   0  0  0  0  0  0  0  0  0  0  0  0
    5.4040   69.5080   65.4770 C   0  0  0  0  0  0  0  0  0  0  0  0
    5.7320   70.1290   66.6860 C   0  0  0  0  0  0  0  0  0  0  0  0
    4.7770   70.2530   67.6890 C   0  0  0  0  0  0  0  0  0  0  0  0
    3.4970   69.7500   67.4870 C   0  0  0  0  0  0  0  0  0  0  0  0
    3.1690   69.1310   66.2760 C   0  0  0  0  0  0  0  0  0  0  0  0
    2.7090   66.0560   64.7600 C   0  0  0  0  0  0  0  0  0  0  0  0
    3.8280   66.7380   63.9790 C   0  0  0  0  0  0  0  0  0  0  0  0
    5.0269   69.5265   60.9639 H   0  0  0  0  0  0  0  0  0  0  0  0
    2.9074   69.0876   60.1787 H   0  0  0  0  0  0  0  0  0  0  0  0
    3.1452   67.4883   60.9610 H   0  0  0  0  0  0  0  0  0  0  0  0
    1.2746   69.3447   61.7793 H   0  0  0  0  0  0  0  0  0  0  0  0
    6.1757   69.3997   64.7007 H   0  0  0  0  0  0  0  0  0  0  0  0
    6.7478   70.5203   66.8440 H   0  0  0  0  0  0  0  0  0  0  0  0
    5.0332   70.7469   68.6379 H   0  0  0  0  0  0  0  0  0  0  0  0
    2.7406   69.8388   68.2807 H   0  0  0  0  0  0  0  0  0  0  0  0
    2.1567   68.7238   66.1368 H   0  0  0  0  0  0  0  0  0  0  0  0
    2.8934   66.1684   65.8386 H   0  0  0  0  0  0  0  0  0  0  0  0
    1.7459   66.5208   64.5023 H   0  0  0  0  0  0  0  0  0  0  0  0
    2.6808   64.9870   64.5023 H   0  0  0  0  0  0  0  0  0  0  0  0
    4.7832   66.4640   64.4507 H   0  0  0  0  0  0  0  0  0  0  0  0
    3.7220   66.3880   62.9416 H   0  0  0  0  0  0  0  0  0  0  0  0
  2  1  1  0
  3  2  2  0
  4  2  1  0
  5  4  1  0
  6  5  1  0
  7  6  1  0
  7  1  1  0
  8  7  2  0
  9  1  1  0
 10  9  2  0
 11 10  1  0
 12 11  2  0
 13 12  1  0
 14 13  2  0
 14  9  1  0
 16 15  1  0
 16  1  1  0
  4 17  1  0
  5 18  1  0
  5 19  1  0
  6 20  1  0
 10 21  1  0
 11 22  1  0
 12 23  1  0
 13 24  1  0
 14 25  1  0
 15 26  1  0
 15 27  1  0
 15 28  1  0
 16 29  1  0
 16 30  1  0
M  END
>  <score>  (2) 
-8.626

$$$$
=
     RDKit          3D

 30 31  0  0  0  0  0  0  0  0999 V2000
    2.0090   68.1290   64.3500 C   0  0  0  0  0  0  0  0  0  0  0  0
    2.3050   68.3590   62.8460 C   0  0  0  0  0  0  0  0  0  0  0  0
    3.4110   68.1920   62.3290 O   0  0  0  0  0  0  0  0  0  0  0  0
    1.2670   68.7110   62.0320 N   0  0  0  0  0  0  0  0  0  0  0  0
   -0.0770   68.4940   62.4230 C   0  0  0  0  0  0  0  0  0  0  0  0
   -0.2670   68.9690   63.7440 N   0  0  0  0  0  0  0  0  0  0  0  0
    0.6190   68.6870   64.7430 C   0  0  0  0  0  0  0  0  0  0  0  0
    0.2480   68.8670   65.9040 O   0  0  0  0  0  0  0  0  0  0  0  0
    3.1490   68.7880   65.1620 C   0  0  0  0  0  0  0  0  0  0  0  0
    2.9950   69.0760   66.5320 C   0  0  0  0  0  0  0  0  0  0  0  0
    4.0090   69.7030   67.2630 C   0  0  0  0  0  0  0  0  0  0  0  0
    5.1930   70.0770   66.6380 C   0  0  0  0  0  0  0  0  0  0  0  0
    5.3590   69.8330   65.2790 C   0  0  0  0  0  0  0  0  0  0  0  0
    4.3460   69.2050   64.5480 C   0  0  0  0  0  0  0  0  0  0  0  0
    3.2390   65.8330   64.6340 C   0  0  0  0  0  0  0  0  0  0  0  0
    1.9120   66.5760   64.5110 C   0  0  0  0  0  0  0  0  0  0  0  0
    1.4647   69.1419   61.1176 H   0  0  0  0  0  0  0  0  0  0  0  0
   -0.7494   69.0329   61.7393 H   0  0  0  0  0  0  0  0  0  0  0  0
   -0.3008   67.4177   62.3846 H   0  0  0  0  0  0  0  0  0  0  0  0
   -1.0959   69.5425   63.9562 H   0  0  0  0  0  0  0  0  0  0  0  0
    2.0574   68.8020   67.0377 H   0  0  0  0  0  0  0  0  0  0  0  0
    3.8692   69.9009   68.3360 H   0  0  0  0  0  0  0  0  0  0  0  0
    5.9937   70.5630   67.2148 H   0  0  0  0  0  0  0  0  0  0  0  0
    6.2903   70.1350   64.7775 H   0  0  0  0  0  0  0  0  0  0  0  0
    4.4869   69.0330   63.4707 H   0  0  0  0  0  0  0  0  0  0  0  0
    3.4849   65.6953   65.6973 H   0  0  0  0  0  0  0  0  0  0  0  0
    3.1556   64.8504   64.1467 H   0  0  0  0  0  0  0  0  0  0  0  0
    4.0331   66.4177   64.1467 H   0  0  0  0  0  0  0  0  0  0  0  0
    1.3839   66.1787   63.6317 H   0  0  0  0  0  0  0  0  0  0  0  0
    1.3884   66.4084   65.4637 H   0  0  0  0  0  0  0  0  0  0  0  0
  2  1  1  0
  3  2  2  0
  4  2  1  0
  5  4  1  0
  6  5  1  0
  7  6  1  0
  7  1  1  0
  8  7  2  0
  9  1  1  0
 10  9  2  0
 11 10  1  0
 12 11  2  0
 13 12  1  0
 14 13  2  0
 14  9  1  0
 16 15  1  0
 16  1  1  0
  4 17  1  0
  5 18  1  0
  5 19  1  0
  6 20  1  0
 10 21  1  0
 11 22  1  0
 12 23  1  0
 13 24  1  0
 14 25  1  0
 15 26  1  0
 15 27  1  0
 15 28  1  0
 16 29  1  0
 16 30  1  0
M  END
>  <score>  (3) 
-8.515

$$$$
=
     RDKit          3D

 30 31  0  0  0  0  0  0  0  0999 V2000
    1.5020   68.4220   67.5250 C   0  0  0  0  0  0  0  0  0  0  0  0
    1.1720   67.2360   66.5840 C   0  0  0  0  0  0  0  0  0  0  0  0
    1.9970   66.3960   66.2200 O   0  0  0  0  0  0  0  0  0  0  0  0
   -0.1220   67.0750   66.1790 N   0  0  0  0  0  0  0  0  0  0  0  0
   -1.1900   67.6920   66.8760 C   0  0  0  0  0  0  0  0  0  0  0  0
   -0.8800   69.0560   67.1030 N   0  0  0  0  0  0  0  0  0  0  0  0
    0.3420   69.4470   67.5680 C   0  0  0  0  0  0  0  0  0  0  0  0
    0.4410   70.5870   68.0230 O   0  0  0  0  0  0  0  0  0  0  0  0
    2.8220   69.0620   67.0340 C   0  0  0  0  0  0  0  0  0  0  0  0
    3.2260   68.9560   65.6890 C   0  0  0  0  0  0  0  0  0  0  0  0
    4.4350   69.5030   65.2470 C   0  0  0  0  0  0  0  0  0  0  0  0
    5.2800   70.1480   66.1430 C   0  0  0  0  0  0  0  0  0  0  0  0
    4.9210   70.2390   67.4830 C   0  0  0  0  0  0  0  0  0  0  0  0
    3.7110   69.6940   67.9250 C   0  0  0  0  0  0  0  0  0  0  0  0
    0.5650   66.6940   69.2570 C   0  0  0  0  0  0  0  0  0  0  0  0
    1.5780   67.7960   68.9560 C   0  0  0  0  0  0  0  0  0  0  0  0
   -0.3252   66.4949   65.3525 H   0  0  0  0  0  0  0  0  0  0  0  0
   -2.1095   67.6197   66.2765 H   0  0  0  0  0  0  0  0  0  0  0  0
   -1.3404   67.1846   67.8403 H   0  0  0  0  0  0  0  0  0  0  0  0
   -1.5960   69.7713   66.9120 H   0  0  0  0  0  0  0  0  0  0  0  0
    2.5774   68.4323   64.9714 H   0  0  0  0  0  0  0  0  0  0  0  0
    4.7182   69.4226   64.1871 H   0  0  0  0  0  0  0  0  0  0  0  0
    6.2275   70.5840   65.7936 H   0  0  0  0  0  0  0  0  0  0  0  0
    5.5902   70.7408   68.1974 H   0  0  0  0  0  0  0  0  0  0  0  0
    3.4482   69.7604   68.9911 H   0  0  0  0  0  0  0  0  0  0  0  0
    0.4601   66.5799   70.3460 H   0  0  0  0  0  0  0  0  0  0  0  0
   -0.4087   66.9619   68.8209 H   0  0  0  0  0  0  0  0  0  0  0  0
    0.9138   65.7463   68.8209 H   0  0  0  0  0  0  0  0  0  0  0  0
    1.4235   68.6042   69.6860 H   0  0  0  0  0  0  0  0  0  0  0  0
    2.5662   67.3169   69.0190 H   0  0  0  0  0  0  0  0  0  0  0  0
  2  1  1  0
  3  2  2  0
  4  2  1  0
  5  4  1  0
  6  5  1  0
  7  6  1  0
  7  1  1  0
  8  7  2  0
  9  1  1  0
 10  9  2  0
 11 10  1  0
 12 11  2  0
 13 12  1  0
 14 13  2  0
 14  9  1  0
 16 15  1  0
 16  1  1  0
  4 17  1  0
  5 18  1  0
  5 19  1  0
  6 20  1  0
 10 21  1  0
 11 22  1  0
 12 23  1  0
 13 24  1  0
 14 25  1  0
 15 26  1  0
 15 27  1  0
 15 28  1  0
 16 29  1  0
 16 30  1  0
M  END
>  <score>  (4) 
-8.386

$$$$
=
     RDKit          3D

 30 31  0  0  0  0  0  0  0  0999 V2000
    3.2430   67.2510   63.9520 C   0  0  0  0  0  0  0  0  0  0  0  0
    3.9330   66.5270   62.7680 C   0  0  0  0  0  0  0  0  0  0  0  0
    4.2420   67.0780   61.7110 O   0  0  0  0  0  0  0  0  0  0  0  0
    4.2730   65.2140   62.9260 N   0  0  0  0  0  0  0  0  0  0  0  0
    4.3710   64.6320   64.2140 C   0  0  0  0  0  0  0  0  0  0  0  0
    3.2230   64.9680   64.9730 N   0  0  0  0  0  0  0  0  0  0  0  0
    2.7340   66.2420   65.0110 C   0  0  0  0  0  0  0  0  0  0  0  0
    1.9380   66.5220   65.9080 O   0  0  0  0  0  0  0  0  0  0  0  0
    2.0950   68.1130   63.3750 C   0  0  0  0  0  0  0  0  0  0  0  0
    0.8780   68.2640   64.0680 C   0  0  0  0  0  0  0  0  0  0  0  0
   -0.1750   69.0140   63.5350 C   0  0  0  0  0  0  0  0  0  0  0  0
   -0.0470   69.6110   62.2870 C   0  0  0  0  0  0  0  0  0  0  0  0
    1.1320   69.4520   61.5660 C   0  0  0  0  0  0  0  0  0  0  0  0
    2.1860   68.7040   62.1000 C   0  0  0  0  0  0  0  0  0  0  0  0
    3.9460   69.3450   65.3620 C   0  0  0  0  0  0  0  0  0  0  0  0
    4.3810   68.0690   64.6460 C   0  0  0  0  0  0  0  0  0  0  0  0
    4.4615   64.6366   62.0942 H   0  0  0  0  0  0  0  0  0  0  0  0
    4.4397   63.5384   64.1179 H   0  0  0  0  0  0  0  0  0  0  0  0
    5.2699   65.0129   64.7209 H   0  0  0  0  0  0  0  0  0  0  0  0
    2.7444   64.2313   65.5106 H   0  0  0  0  0  0  0  0  0  0  0  0
    0.7534   67.7819   65.0488 H   0  0  0  0  0  0  0  0  0  0  0  0
   -1.1079   69.1317   64.1058 H   0  0  0  0  0  0  0  0  0  0  0  0
   -0.8734   70.2061   61.8713 H   0  0  0  0  0  0  0  0  0  0  0  0
    1.2354   69.9156   60.5738 H   0  0  0  0  0  0  0  0  0  0  0  0
    3.1062   68.5744   61.5113 H   0  0  0  0  0  0  0  0  0  0  0  0
    3.9985   69.1911   66.4499 H   0  0  0  0  0  0  0  0  0  0  0  0
    4.6131   70.1715   65.0760 H   0  0  0  0  0  0  0  0  0  0  0  0
    2.9129   69.5919   65.0760 H   0  0  0  0  0  0  0  0  0  0  0  0
    5.1131   68.3489   63.8742 H   0  0  0  0  0  0  0  0  0  0  0  0
    4.7835   67.4111   65.4303 H   0  0  0  0  0  0  0  0  0  0  0  0
  2  1  1  0
  3  2  2  0
  4  2  1  0
  5  4  1  0
  6  5  1  0
  7  6  1  0
  7  1  1  0
  8  7  2  0
  9  1  1  0
 10  9  2  0
 11 10  1  0
 12 11  2  0
 13 12  1  0
 14 13  2  0
 14  9  1  0
 16 15  1  0
 16  1  1  0
  4 17  1  0
  5 18  1  0
  5 19  1  0
  6 20  1  0
 10 21  1  0
 11 22  1  0
 12 23  1  0
 13 24  1  0
 14 25  1  0
 15 26  1  0
 15 27  1  0
 15 28  1  0
 16 29  1  0
 16 30  1  0
M  END
>  <score>  (5) 
-8.243

$$$$
=
     RDKit          3D

 30 31  0  0  0  0  0  0  0  0999 V2000
    1.8450   67.9020   64.8850 C   0  0  0  0  0  0  0  0  0  0  0  0
    1.0060   67.5140   66.1290 C   0  0  0  0  0  0  0  0  0  0  0  0
    1.4790   67.0080   67.1480 O   0  0  0  0  0  0  0  0  0  0  0  0
   -0.3290   67.8030   66.1220 N   0  0  0  0  0  0  0  0  0  0  0  0
   -0.8670   68.7580   65.2240 C   0  0  0  0  0  0  0  0  0  0  0  0
   -0.3810   68.5040   63.9180 N   0  0  0  0  0  0  0  0  0  0  0  0
    0.9380   68.2470   63.6780 C   0  0  0  0  0  0  0  0  0  0  0  0
    1.3350   68.3360   62.5160 O   0  0  0  0  0  0  0  0  0  0  0  0
    2.8000   66.7250   64.5740 C   0  0  0  0  0  0  0  0  0  0  0  0
    3.9830   66.9230   63.8360 C   0  0  0  0  0  0  0  0  0  0  0  0
    4.8330   65.8580   63.5220 C   0  0  0  0  0  0  0  0  0  0  0  0
    4.5090   64.5650   63.9180 C   0  0  0  0  0  0  0  0  0  0  0  0
    3.3310   64.3360   64.6200 C   0  0  0  0  0  0  0  0  0  0  0  0
    2.4820   65.4020   64.9360 C   0  0  0  0  0  0  0  0  0  0  0  0
    3.5430   69.1430   66.4470 C   0  0  0  0  0  0  0  0  0  0  0  0
    2.5640   69.2330   65.2800 C   0  0  0  0  0  0  0  0  0  0  0  0
   -0.9553   67.3185   66.7807 H   0  0  0  0  0  0  0  0  0  0  0  0
   -1.9647   68.6867   65.2271 H   0  0  0  0  0  0  0  0  0  0  0  0
   -0.5644   69.7679   65.5380 H   0  0  0  0  0  0  0  0  0  0  0  0
   -1.0412   68.5135   63.1274 H   0  0  0  0  0  0  0  0  0  0  0  0
    4.2440   67.9372   63.4994 H   0  0  0  0  0  0  0  0  0  0  0  0
    5.7604   66.0435   62.9603 H   0  0  0  0  0  0  0  0  0  0  0  0
    5.1810   63.7281   63.6772 H   0  0  0  0  0  0  0  0  0  0  0  0
    3.0658   63.3138   64.9278 H   0  0  0  0  0  0  0  0  0  0  0  0
    1.5463   65.2024   65.4787 H   0  0  0  0  0  0  0  0  0  0  0  0
    2.9884   69.1940   67.3956 H   0  0  0  0  0  0  0  0  0  0  0  0
    4.0909   68.1907   66.3933 H   0  0  0  0  0  0  0  0  0  0  0  0
    4.2554   69.9794   66.3933 H   0  0  0  0  0  0  0  0  0  0  0  0
    1.7898   69.9677   65.5460 H   0  0  0  0  0  0  0  0  0  0  0  0
    3.1695   69.5140   64.4057 H   0  0  0  0  0  0  0  0  0  0  0  0
  2  1  1  0
  3  2  2  0
  4  2  1  0
  5  4  1  0
  6  5  1  0
  7  6  1  0
  7  1  1  0
  8  7  2  0
  9  1  1  0
 10  9  2  0
 11 10  1  0
 12 11  2  0
 13 12  1  0
 14 13  2  0
 14  9  1  0
 16 15  1  0
 16  1  1  0
  4 17  1  0
  5 18  1  0
  5 19  1  0
  6 20  1  0
 10 21  1  0
 11 22  1  0
 12 23  1  0
 13 24  1  0
 14 25  1  0
 15 26  1  0
 15 27  1  0
 15 28  1  0
 16 29  1  0
 16 30  1  0
M  END
>  <score>  (6) 
-8.018

$$$$
=
     RDKit          3D

 30 31  0  0  0  0  0  0  0  0999 V2000
    0.5590   68.2700   66.8220 C   0  0  0  0  0  0  0  0  0  0  0  0
    0.5020   67.1780   67.9210 C   0  0  0  0  0  0  0  0  0  0  0  0
    1.4700   66.8360   68.6020 O   0  0  0  0  0  0  0  0  0  0  0  0
   -0.7060   66.6010   68.1930 N   0  0  0  0  0  0  0  0  0  0  0  0
   -1.9180   67.2200   67.8020 C   0  0  0  0  0  0  0  0  0  0  0  0
   -1.8270   67.6230   66.4460 N   0  0  0  0  0  0  0  0  0  0  0  0
   -0.7290   68.2730   65.9620 C   0  0  0  0  0  0  0  0  0  0  0  0
   -0.8380   68.8520   64.8810 O   0  0  0  0  0  0  0  0  0  0  0  0
    1.8250   68.0150   65.9680 C   0  0  0  0  0  0  0  0  0  0  0  0
    2.7500   69.0450   65.7130 C   0  0  0  0  0  0  0  0  0  0  0  0
    3.8770   68.8300   64.9140 C   0  0  0  0  0  0  0  0  0  0  0  0
    4.0950   67.5860   64.3330 C   0  0  0  0  0  0  0  0  0  0  0  0
    3.1800   66.5590   64.5430 C   0  0  0  0  0  0  0  0  0  0  0  0
    2.0540   66.7740   65.3430 C   0  0  0  0  0  0  0  0  0  0  0  0
    1.8590   69.9750   68.3280 C   0  0  0  0  0  0  0  0  0  0  0  0
    0.5640   69.6270   67.5990 C   0  0  0  0  0  0  0  0  0  0  0  0
   -0.7357   65.7000   68.6912 H   0  0  0  0  0  0  0  0  0  0  0  0
   -2.7477   66.5072   67.9177 H   0  0  0  0  0  0  0  0  0  0  0  0
   -2.1004   68.1011   68.4348 H   0  0  0  0  0  0  0  0  0  0  0  0
   -2.6105   67.4198   65.8090 H   0  0  0  0  0  0  0  0  0  0  0  0
    2.5826   70.0398   66.1515 H   0  0  0  0  0  0  0  0  0  0  0  0
    4.5932   69.6475   64.7446 H   0  0  0  0  0  0  0  0  0  0  0  0
    4.9858   67.4146   63.7108 H   0  0  0  0  0  0  0  0  0  0  0  0
    3.3431   65.5754   64.0783 H   0  0  0  0  0  0  0  0  0  0  0  0
    1.3319   65.9569   65.4873 H   0  0  0  0  0  0  0  0  0  0  0  0
    1.6917   69.9300   69.4143 H   0  0  0  0  0  0  0  0  0  0  0  0
    2.6424   69.2555   68.0476 H   0  0  0  0  0  0  0  0  0  0  0  0
    2.1762   70.9903   68.0476 H   0  0  0  0  0  0  0  0  0  0  0  0
   -0.2432   69.5906   68.3454 H   0  0  0  0  0  0  0  0  0  0  0  0
    0.4348   70.4073   66.8345 H   0  0  0  0  0  0  0  0  0  0  0  0
  2  1  1  0
  3  2  2  0
  4  2  1  0
  5  4  1  0
  6  5  1  0
  7  6  1  0
  7  1  1  0
  8  7  2  0
  9  1  1  0
 10  9  2  0
 11 10  1  0
 12 11  2  0
 13 12  1  0
 14 13  2  0
 14  9  1  0
 16 15  1  0
 16  1  1  0
  4 17  1  0
  5 18  1  0
  5 19  1  0
  6 20  1  0
 10 21  1  0
 11 22  1  0
 12 23  1  0
 13 24  1  0
 14 25  1  0
 15 26  1  0
 15 27  1  0
 15 28  1  0
 16 29  1  0
 16 30  1  0
M  END
>  <score>  (7) 
-7.939

$$$$
=
     RDKit          3D

 30 31  0  0  0  0  0  0  0  0999 V2000
    0.8990   68.2200   66.4820 C   0  0  0  0  0  0  0  0  0  0  0  0
   -0.3930   68.9700   66.0700 C   0  0  0  0  0  0  0  0  0  0  0  0
   -1.0690   69.6510   66.8440 O   0  0  0  0  0  0  0  0  0  0  0  0
   -0.7750   68.9260   64.7600 N   0  0  0  0  0  0  0  0  0  0  0  0
    0.1410   68.5660   63.7410 C   0  0  0  0  0  0  0  0  0  0  0  0
    0.8340   67.3900   64.1230 N   0  0  0  0  0  0  0  0  0  0  0  0
    1.3570   67.2390   65.3740 C   0  0  0  0  0  0  0  0  0  0  0  0
    2.1900   66.3460   65.5410 O   0  0  0  0  0  0  0  0  0  0  0  0
    0.6180   67.4940   67.8190 C   0  0  0  0  0  0  0  0  0  0  0  0
    1.5800   67.4650   68.8470 C   0  0  0  0  0  0  0  0  0  0  0  0
    1.3460   66.7810   70.0440 C   0  0  0  0  0  0  0  0  0  0  0  0
    0.1530   66.0920   70.2340 C   0  0  0  0  0  0  0  0  0  0  0  0
   -0.8010   66.0780   69.2230 C   0  0  0  0  0  0  0  0  0  0  0  0
   -0.5670   66.7630   68.0260 C   0  0  0  0  0  0  0  0  0  0  0  0
    3.2390   69.0990   65.6980 C   0  0  0  0  0  0  0  0  0  0  0  0
    2.0020   69.3250   66.5630 C   0  0  0  0  0  0  0  0  0  0  0  0
   -1.7463   69.1586   64.5081 H   0  0  0  0  0  0  0  0  0  0  0  0
   -0.4060   68.3815   62.8046 H   0  0  0  0  0  0  0  0  0  0  0  0
    0.8613   69.3835   63.5897 H   0  0  0  0  0  0  0  0  0  0  0  0
    0.9457   66.6291   63.4378 H   0  0  0  0  0  0  0  0  0  0  0  0
    2.5354   67.9914   68.7054 H   0  0  0  0  0  0  0  0  0  0  0  0
    2.1077   66.7879   70.8376 H   0  0  0  0  0  0  0  0  0  0  0  0
   -0.0347   65.5611   71.1790 H   0  0  0  0  0  0  0  0  0  0  0  0
   -1.7424   65.5268   69.3646 H   0  0  0  0  0  0  0  0  0  0  0  0
   -1.3251   66.7297   67.2296 H   0  0  0  0  0  0  0  0  0  0  0  0
    4.1144   68.9391   66.3446 H   0  0  0  0  0  0  0  0  0  0  0  0
    3.0857   68.2140   65.0630 H   0  0  0  0  0  0  0  0  0  0  0  0
    3.4085   69.9810   65.0630 H   0  0  0  0  0  0  0  0  0  0  0  0
    2.3316   69.3956   67.6101 H   0  0  0  0  0  0  0  0  0  0  0  0
    1.5328   70.2418   66.1765 H   0  0  0  0  0  0  0  0  0  0  0  0
  2  1  1  0
  3  2  2  0
  4  2  1  0
  5  4  1  0
  6  5  1  0
  7  6  1  0
  7  1  1  0
  8  7  2  0
  9  1  1  0
 10  9  2  0
 11 10  1  0
 12 11  2  0
 13 12  1  0
 14 13  2  0
 14  9  1  0
 16 15  1  0
 16  1  1  0
  4 17  1  0
  5 18  1  0
  5 19  1  0
  6 20  1  0
 10 21  1  0
 11 22  1  0
 12 23  1  0
 13 24  1  0
 14 25  1  0
 15 26  1  0
 15 27  1  0
 15 28  1  0
 16 29  1  0
 16 30  1  0
M  END
>  <score>  (8) 
-7.799

$$$$
=
     RDKit          3D

 30 31  0  0  0  0  0  0  0  0999 V2000
    3.0160   60.3290   71.9280 C   0  0  0  0  0  0  0  0  0  0  0  0
    3.9400   60.9310   73.0170 C   0  0  0  0  0  0  0  0  0  0  0  0
    3.6670   60.9470   74.2180 O   0  0  0  0  0  0  0  0  0  0  0  0
    5.1550   61.4210   72.6330 N   0  0  0  0  0  0  0  0  0  0  0  0
    5.7350   61.0520   71.3940 C   0  0  0  0  0  0  0  0  0  0  0  0
    4.7710   61.1820   70.3640 N   0  0  0  0  0  0  0  0  0  0  0  0
    3.4990   60.7090   70.5060 C   0  0  0  0  0  0  0  0  0  0  0  0
    2.8190   60.5830   69.4870 O   0  0  0  0  0  0  0  0  0  0  0  0
    1.5760   60.8240   72.2020 C   0  0  0  0  0  0  0  0  0  0  0  0
    1.1700   62.1210   71.8340 C   0  0  0  0  0  0  0  0  0  0  0  0
   -0.1190   62.5860   72.1100 C   0  0  0  0  0  0  0  0  0  0  0  0
   -1.0270   61.7750   72.7810 C   0  0  0  0  0  0  0  0  0  0  0  0
   -0.6420   60.5010   73.1850 C   0  0  0  0  0  0  0  0  0  0  0  0
    0.6470   60.0350   72.9070 C   0  0  0  0  0  0  0  0  0  0  0  0
    3.4070   58.0290   70.7350 C   0  0  0  0  0  0  0  0  0  0  0  0
    3.2030   58.7810   72.0480 C   0  0  0  0  0  0  0  0  0  0  0  0
    5.6586   62.0699   73.2545 H   0  0  0  0  0  0  0  0  0  0  0  0
    6.5912   61.7086   71.1799 H   0  0  0  0  0  0  0  0  0  0  0  0
    6.0776   60.0080   71.4460 H   0  0  0  0  0  0  0  0  0  0  0  0
    5.0376   61.6462   69.4840 H   0  0  0  0  0  0  0  0  0  0  0  0
    1.8821   62.7822   71.3185 H   0  0  0  0  0  0  0  0  0  0  0  0
   -0.4159   63.5973   71.7951 H   0  0  0  0  0  0  0  0  0  0  0  0
   -2.0437   62.1386   72.9911 H   0  0  0  0  0  0  0  0  0  0  0  0
   -1.3532   59.8583   73.7246 H   0  0  0  0  0  0  0  0  0  0  0  0
    0.9413   59.0309   73.2463 H   0  0  0  0  0  0  0  0  0  0  0  0
    3.6895   56.9876   70.9489 H   0  0  0  0  0  0  0  0  0  0  0  0
    2.4724   58.0436   70.1550 H   0  0  0  0  0  0  0  0  0  0  0  0
    4.2061   58.5139   70.1550 H   0  0  0  0  0  0  0  0  0  0  0  0
    2.3066   58.3703   72.5356 H   0  0  0  0  0  0  0  0  0  0  0  0
    4.1315   58.6373   72.6201 H   0  0  0  0  0  0  0  0  0  0  0  0
  2  1  1  0
  3  2  2  0
  4  2  1  0
  5  4  1  0
  6  5  1  0
  7  6  1  0
  7  1  1  0
  8  7  2  0
  9  1  1  0
 10  9  2  0
 11 10  1  0
 12 11  2  0
 13 12  1  0
 14 13  2  0
 14  9  1  0
 16 15  1  0
 16  1  1  0
  4 17  1  0
  5 18  1  0
  5 19  1  0
  6 20  1  0
 10 21  1  0
 11 22  1  0
 12 23  1  0
 13 24  1  0
 14 25  1  0
 15 26  1  0
 15 27  1  0
 15 28  1  0
 16 29  1  0
 16 30  1  0
M  END
>  <score>  (9) 
-7.735

$$$$
