=
     RDKit          3D

 68 70  0  0  0  0  0  0  0  0999 V2000
    0.9330   65.0390   70.6460 C   0  0  0  0  0  0  0  0  0  0  0  0
    2.2930   64.9850   70.3020 C   0  0  0  0  0  0  0  0  0  0  0  0
    3.0070   63.7930   70.4110 C   0  0  0  0  0  0  0  0  0  0  0  0
    2.3570   62.6480   70.8760 C   0  0  0  0  0  0  0  0  0  0  0  0
    1.0140   62.6920   71.2590 C   0  0  0  0  0  0  0  0  0  0  0  0
    0.3090   63.8910   71.1540 C   0  0  0  0  0  0  0  0  0  0  0  0
    3.2270   61.0910   70.8940 S   0  0  0  0  0  6  0  0  0  0  0  0
    3.1430   60.5600   69.5520 O   0  0  0  0  0  0  0  0  0  0  0  0
    4.4930   61.3310   71.5520 O   0  0  0  0  0  0  0  0  0  0  0  0
    2.2350   60.2170   71.9070 N   0  0  0  0  0  0  0  0  0  0  0  0
    2.4270   58.8670   72.1510 C   0  0  0  0  0  0  0  0  0  0  0  0
    3.3320   58.2110   71.6650 O   0  0  0  0  0  0  0  0  0  0  0  0
    1.4900   58.3650   73.0100 N   0  0  0  0  0  0  0  0  0  0  0  0
    1.5730   56.9980   73.5150 C   0  0  2  0  0  0  0  0  0  0  0  0
    0.2160   56.2950   73.3990 C   0  0  0  0  0  0  0  0  0  0  0  0
   -0.8090   56.7990   74.4170 C   0  0  0  0  0  0  0  0  0  0  0  0
   -0.2900   56.7780   75.8600 C   0  0  2  0  0  0  0  0  0  0  0  0
    1.0670   57.4890   75.9640 C   0  0  0  0  0  0  0  0  0  0  0  0
    2.0960   56.9710   74.9590 C   0  0  0  0  0  0  0  0  0  0  0  0
   -0.2240   55.3530   76.4160 C   0  0  0  0  0  0  0  0  0  0  0  0
    0.1320   66.2900   70.3510 C   0  0  0  0  0  0  0  0  0  0  0  0
   -0.2590   66.4540   68.8670 C   0  0  0  0  0  0  0  0  0  0  0  0
    3.7930   69.6210   66.8550 C   0  0  0  0  0  0  0  0  0  0  0  0
    3.6620   69.1850   65.5940 C   0  0  0  0  0  0  0  0  0  0  0  0
    4.6240   69.3260   64.4650 C   0  0  0  0  0  0  0  0  0  0  0  0
    2.3800   68.4530   65.3740 C   0  0  0  0  0  0  0  0  0  0  0  0
    1.7650   68.5100   66.6700 N   0  0  0  0  0  0  0  0  0  0  0  0
    2.5830   69.1720   67.5790 C   0  0  0  0  0  0  0  0  0  0  0  0
    2.3690   69.3820   68.7640 O   0  0  0  0  0  0  0  0  0  0  0  0
    0.7200   67.6490   66.9600 C   0  0  0  0  0  0  0  0  0  0  0  0
    0.2470   66.8820   66.1210 O   0  0  0  0  0  0  0  0  0  0  0  0
    0.3070   67.6530   68.2730 N   0  0  0  0  0  0  0  0  0  0  0  0
    6.2570   69.9870   66.9400 C   0  0  0  0  0  0  0  0  0  0  0  0
    4.9040   70.3330   67.5430 C   0  0  0  0  0  0  0  0  0  0  0  0
    2.8002   65.8926   69.9428 H   0  0  0  0  0  0  0  0  0  0  0  0
    4.0708   63.7547   70.1338 H   0  0  0  0  0  0  0  0  0  0  0  0
    0.5165   61.7881   71.6404 H   0  0  0  0  0  0  0  0  0  0  0  0
   -0.7431   63.9360   71.4718 H   0  0  0  0  0  0  0  0  0  0  0  0
    1.4500   60.6979   72.3689 H   0  0  0  0  0  0  0  0  0  0  0  0
    0.7075   58.9649   73.3078 H   0  0  0  0  0  0  0  0  0  0  0  0
    2.2941   56.4465   72.8938 H   0  0  0  0  0  0  0  0  0  0  0  0
   -0.1816   56.4658   72.3877 H   0  0  0  0  0  0  0  0  0  0  0  0
    0.3814   55.2264   73.6010 H   0  0  0  0  0  0  0  0  0  0  0  0
   -1.0792   57.8334   74.1579 H   0  0  0  0  0  0  0  0  0  0  0  0
   -1.6743   56.1214   74.3716 H   0  0  0  0  0  0  0  0  0  0  0  0
   -1.0081   57.3320   76.4824 H   0  0  0  0  0  0  0  0  0  0  0  0
    0.9135   58.5634   75.7851 H   0  0  0  0  0  0  0  0  0  0  0  0
    1.4640   57.2907   76.9705 H   0  0  0  0  0  0  0  0  0  0  0  0
    2.9963   57.6001   75.0199 H   0  0  0  0  0  0  0  0  0  0  0  0
    2.3160   55.9242   75.2153 H   0  0  0  0  0  0  0  0  0  0  0  0
   -0.2256   55.3880   77.5154 H   0  0  0  0  0  0  0  0  0  0  0  0
   -1.0967   54.7821   76.0660 H   0  0  0  0  0  0  0  0  0  0  0  0
    0.6977   54.8652   76.0660 H   0  0  0  0  0  0  0  0  0  0  0  0
   -0.7903   66.2585   70.9496 H   0  0  0  0  0  0  0  0  0  0  0  0
    0.7753   67.1453   70.6054 H   0  0  0  0  0  0  0  0  0  0  0  0
    0.1027   65.5785   68.3078 H   0  0  0  0  0  0  0  0  0  0  0  0
   -1.3544   66.5407   68.8170 H   0  0  0  0  0  0  0  0  0  0  0  0
    5.6383   69.4747   64.8639 H   0  0  0  0  0  0  0  0  0  0  0  0
    4.6022   68.4151   63.8488 H   0  0  0  0  0  0  0  0  0  0  0  0
    4.3417   70.1924   63.8488 H   0  0  0  0  0  0  0  0  0  0  0  0
    1.7599   68.9554   64.6170 H   0  0  0  0  0  0  0  0  0  0  0  0
    2.5183   67.4285   64.9982 H   0  0  0  0  0  0  0  0  0  0  0  0
    0.3996   68.5099   68.8370 H   0  0  0  0  0  0  0  0  0  0  0  0
    6.9814   69.8017   67.7468 H   0  0  0  0  0  0  0  0  0  0  0  0
    6.1615   69.0844   66.3186 H   0  0  0  0  0  0  0  0  0  0  0  0
    6.6065   70.8247   66.3186 H   0  0  0  0  0  0  0  0  0  0  0  0
    4.7413   71.4172   67.4535 H   0  0  0  0  0  0  0  0  0  0  0  0
    4.9097   70.0193   68.5973 H   0  0  0  0  0  0  0  0  0  0  0  0
  2  1  2  0
  3  2  1  0
  4  3  2  0
  5  4  1  0
  6  1  1  0
  6  5  2  0
  7  4  1  0
  8  7  2  0
  9  7  2  0
 10  7  1  0
 11 10  1  0
 12 11  2  0
 13 11  1  0
 14 13  1  0
 15 14  1  0
 16 15  1  0
 17 16  1  0
 18 17  1  0
 19 18  1  0
 19 14  1  0
 20 17  1  0
 21  1  1  0
 22 21  1  0
 24 23  2  0
 25 24  1  0
 26 24  1  0
 27 26  1  0
 28 27  1  0
 28 23  1  0
 29 28  2  0
 30 27  1  0
 31 30  2  0
 32 30  1  0
 32 22  1  0
 34 23  1  0
 34 33  1  0
  2 35  1  0
  3 36  1  0
  5 37  1  0
  6 38  1  0
 10 39  1  0
 13 40  1  0
 14 41  1  6
 15 42  1  0
 15 43  1  0
 16 44  1  0
 16 45  1  0
 17 46  1  1
 18 47  1  0
 18 48  1  0
 19 49  1  0
 19 50  1  0
 20 51  1  0
 20 52  1  0
 20 53  1  0
 21 54  1  0
 21 55  1  0
 22 56  1  0
 22 57  1  0
 25 58  1  0
 25 59  1  0
 25 60  1  0
 26 61  1  0
 26 62  1  0
 32 63  1  0
 33 64  1  0
 33 65  1  0
 33 66  1  0
 34 67  1  0
 34 68  1  0
M  END
>  <score>  (1) 
-11.575

$$$$
=
     RDKit          3D

 68 70  0  0  0  0  0  0  0  0999 V2000
    1.8220   67.6450   63.5640 C   0  0  0  0  0  0  0  0  0  0  0  0
    0.7990   68.6050   63.5200 C   0  0  0  0  0  0  0  0  0  0  0  0
   -0.0730   68.7640   64.5960 C   0  0  0  0  0  0  0  0  0  0  0  0
    0.0760   67.9510   65.7210 C   0  0  0  0  0  0  0  0  0  0  0  0
    1.0640   66.9640   65.7670 C   0  0  0  0  0  0  0  0  0  0  0  0
    1.9280   66.8060   64.6830 C   0  0  0  0  0  0  0  0  0  0  0  0
   -0.9490   68.2370   67.1530 S   0  0  0  0  0  6  0  0  0  0  0  0
   -0.3650   69.3570   67.8570 O   0  0  0  0  0  0  0  0  0  0  0  0
   -2.3180   68.2470   66.6870 O   0  0  0  0  0  0  0  0  0  0  0  0
   -0.6640   66.8310   67.9990 N   0  0  0  0  0  0  0  0  0  0  0  0
    0.3110   66.7390   68.9780 C   0  0  0  0  0  0  0  0  0  0  0  0
    1.0270   67.6660   69.3130 O   0  0  0  0  0  0  0  0  0  0  0  0
    0.3630   65.4890   69.5310 N   0  0  0  0  0  0  0  0  0  0  0  0
    1.2230   65.1960   70.6740 C   0  0  2  0  0  0  0  0  0  0  0  0
    2.4050   64.3180   70.2500 C   0  0  0  0  0  0  0  0  0  0  0  0
    2.0020   62.8720   69.9550 C   0  0  0  0  0  0  0  0  0  0  0  0
    1.2010   62.2230   71.0910 C   0  0  2  0  0  0  0  0  0  0  0  0
    0.0170   63.1100   71.5030 C   0  0  0  0  0  0  0  0  0  0  0  0
    0.4260   64.5500   71.8150 C   0  0  0  0  0  0  0  0  0  0  0  0
    2.0940   61.8810   72.2880 C   0  0  0  0  0  0  0  0  0  0  0  0
    2.8670   67.6080   62.4680 C   0  0  0  0  0  0  0  0  0  0  0  0
    4.2700   68.0650   62.9180 C   0  0  0  0  0  0  0  0  0  0  0  0
    4.8450   70.2230   67.9680 C   0  0  0  0  0  0  0  0  0  0  0  0
    6.1180   70.6050   67.7840 C   0  0  0  0  0  0  0  0  0  0  0  0
    7.1220   70.9940   68.8130 C   0  0  0  0  0  0  0  0  0  0  0  0
    6.5150   70.5900   66.3450 C   0  0  0  0  0  0  0  0  0  0  0  0
    5.3120   70.1480   65.6970 N   0  0  0  0  0  0  0  0  0  0  0  0
    4.3100   69.8970   66.6280 C   0  0  0  0  0  0  0  0  0  0  0  0
    3.1750   69.4970   66.4160 O   0  0  0  0  0  0  0  0  0  0  0  0
    5.3800   69.6800   64.3950 C   0  0  0  0  0  0  0  0  0  0  0  0
    6.4230   69.6960   63.7430 O   0  0  0  0  0  0  0  0  0  0  0  0
    4.2180   69.1200   63.9150 N   0  0  0  0  0  0  0  0  0  0  0  0
    2.7570   70.8420   69.1800 C   0  0  0  0  0  0  0  0  0  0  0  0
    4.0430   70.0300   69.2060 C   0  0  0  0  0  0  0  0  0  0  0  0
    0.6842   69.2381   62.6278 H   0  0  0  0  0  0  0  0  0  0  0  0
   -0.8696   69.5217   64.5590 H   0  0  0  0  0  0  0  0  0  0  0  0
    1.1598   66.3165   66.6511 H   0  0  0  0  0  0  0  0  0  0  0  0
    2.6964   66.0192   64.7060 H   0  0  0  0  0  0  0  0  0  0  0  0
   -1.2337   65.9997   67.7863 H   0  0  0  0  0  0  0  0  0  0  0  0
   -0.2176   64.7375   69.1321 H   0  0  0  0  0  0  0  0  0  0  0  0
    1.6268   66.1466   71.0526 H   0  0  0  0  0  0  0  0  0  0  0  0
    2.8534   64.7487   69.3426 H   0  0  0  0  0  0  0  0  0  0  0  0
    3.1155   64.2961   71.0895 H   0  0  0  0  0  0  0  0  0  0  0  0
    1.3874   62.8597   69.0428 H   0  0  0  0  0  0  0  0  0  0  0  0
    2.9294   62.2923   69.8369 H   0  0  0  0  0  0  0  0  0  0  0  0
    0.7931   61.2737   70.7136 H   0  0  0  0  0  0  0  0  0  0  0  0
   -0.7129   63.1239   70.6802 H   0  0  0  0  0  0  0  0  0  0  0  0
   -0.4078   62.6831   72.4235 H   0  0  0  0  0  0  0  0  0  0  0  0
   -0.4827   65.1444   71.9909 H   0  0  0  0  0  0  0  0  0  0  0  0
    1.0738   64.5278   72.7038 H   0  0  0  0  0  0  0  0  0  0  0  0
    1.5510   62.0889   73.2218 H   0  0  0  0  0  0  0  0  0  0  0  0
    2.3648   60.8155   72.2508 H   0  0  0  0  0  0  0  0  0  0  0  0
    3.0073   62.4930   72.2508 H   0  0  0  0  0  0  0  0  0  0  0  0
    2.9427   66.5749   62.0979 H   0  0  0  0  0  0  0  0  0  0  0  0
    2.5374   68.3148   61.6923 H   0  0  0  0  0  0  0  0  0  0  0  0
    4.8021   67.2021   63.3449 H   0  0  0  0  0  0  0  0  0  0  0  0
    4.7905   68.4647   62.0352 H   0  0  0  0  0  0  0  0  0  0  0  0
    6.7010   70.8309   69.8161 H   0  0  0  0  0  0  0  0  0  0  0  0
    8.0277   70.3817   68.6915 H   0  0  0  0  0  0  0  0  0  0  0  0
    7.3788   72.0567   68.6915 H   0  0  0  0  0  0  0  0  0  0  0  0
    6.8058   71.5939   66.0021 H   0  0  0  0  0  0  0  0  0  0  0  0
    7.3862   69.9517   66.1364 H   0  0  0  0  0  0  0  0  0  0  0  0
    3.3072   69.4506   64.2644 H   0  0  0  0  0  0  0  0  0  0  0  0
    2.4320   71.0472   70.2107 H   0  0  0  0  0  0  0  0  0  0  0  0
    2.9340   71.7924   68.6553 H   0  0  0  0  0  0  0  0  0  0  0  0
    1.9750   70.2736   68.6553 H   0  0  0  0  0  0  0  0  0  0  0  0
    3.7889   68.9641   69.3028 H   0  0  0  0  0  0  0  0  0  0  0  0
    4.6458   70.3726   70.0600 H   0  0  0  0  0  0  0  0  0  0  0  0
  2  1  2  0
  3  2  1  0
  4  3  2  0
  5  4  1  0
  6  1  1  0
  6  5  2  0
  7  4  1  0
  8  7  2  0
  9  7  2  0
 10  7  1  0
 11 10  1  0
 12 11  2  0
 13 11  1  0
 14 13  1  0
 15 14  1  0
 16 15  1  0
 17 16  1  0
 18 17  1  0
 19 18  1  0
 19 14  1  0
 20 17  1  0
 21  1  1  0
 22 21  1  0
 24 23  2  0
 25 24  1  0
 26 24  1  0
 27 26  1  0
 28 27  1  0
 28 23  1  0
 29 28  2  0
 30 27  1  0
 31 30  2  0
 32 30  1  0
 32 22  1  0
 34 23  1  0
 34 33  1  0
  2 35  1  0
  3 36  1  0
  5 37  1  0
  6 38  1  0
 10 39  1  0
 13 40  1  0
 14 41  1  1
 15 42  1  0
 15 43  1  0
 16 44  1  0
 16 45  1  0
 17 46  1  6
 18 47  1  0
 18 48  1  0
 19 49  1  0
 19 50  1  0
 20 51  1  0
 20 52  1  0
 20 53  1  0
 21 54  1  0
 21 55  1  0
 22 56  1  0
 22 57  1  0
 25 58  1  0
 25 59  1  0
 25 60  1  0
 26 61  1  0
 26 62  1  0
 32 63  1  0
 33 64  1  0
 33 65  1  0
 33 66  1  0
 34 67  1  0
 34 68  1  0
M  END
>  <score>  (2) 
-10.853

$$$$
=
     RDKit          3D

 68 70  0  0  0  0  0  0  0  0999 V2000
    1.0230   64.9040   70.6360 C   0  0  0  0  0  0  0  0  0  0  0  0
    2.4190   64.8670   70.5010 C   0  0  0  0  0  0  0  0  0  0  0  0
    3.1110   63.6610   70.6080 C   0  0  0  0  0  0  0  0  0  0  0  0
    2.4010   62.4860   70.8590 C   0  0  0  0  0  0  0  0  0  0  0  0
    1.0150   62.5100   71.0350 C   0  0  0  0  0  0  0  0  0  0  0  0
    0.3310   63.7210   70.9330 C   0  0  0  0  0  0  0  0  0  0  0  0
    3.2630   60.9240   70.8670 S   0  0  0  0  0  6  0  0  0  0  0  0
    3.1620   60.3960   69.5250 O   0  0  0  0  0  0  0  0  0  0  0  0
    4.5360   61.1560   71.5130 O   0  0  0  0  0  0  0  0  0  0  0  0
    2.2760   60.0540   71.8890 N   0  0  0  0  0  0  0  0  0  0  0  0
    2.4130   58.6880   72.0670 C   0  0  0  0  0  0  0  0  0  0  0  0
    3.2620   58.0120   71.5120 O   0  0  0  0  0  0  0  0  0  0  0  0
    1.4910   58.1930   72.9470 N   0  0  0  0  0  0  0  0  0  0  0  0
    1.5300   56.8020   73.3910 C   0  0  2  0  0  0  0  0  0  0  0  0
    0.1270   56.1870   73.3630 C   0  0  0  0  0  0  0  0  0  0  0  0
   -0.7770   56.7060   74.4840 C   0  0  0  0  0  0  0  0  0  0  0  0
   -0.1420   56.5910   75.8750 C   0  0  2  0  0  0  0  0  0  0  0  0
    1.2600   57.2160   75.8910 C   0  0  0  0  0  0  0  0  0  0  0  0
    2.1680   56.6820   74.7820 C   0  0  0  0  0  0  0  0  0  0  0  0
   -0.1210   55.1420   76.3690 C   0  0  0  0  0  0  0  0  0  0  0  0
    0.2720   66.1860   70.3380 C   0  0  0  0  0  0  0  0  0  0  0  0
   -0.3740   66.2280   68.9380 C   0  0  0  0  0  0  0  0  0  0  0  0
    1.5130   68.3220   64.1900 C   0  0  0  0  0  0  0  0  0  0  0  0
    0.3320   68.8330   63.8130 C   0  0  0  0  0  0  0  0  0  0  0  0
   -0.0830   69.2970   62.4600 C   0  0  0  0  0  0  0  0  0  0  0  0
   -0.6490   68.8890   64.9370 C   0  0  0  0  0  0  0  0  0  0  0  0
    0.1030   68.3430   66.0320 N   0  0  0  0  0  0  0  0  0  0  0  0
    1.3790   67.9730   65.6210 C   0  0  0  0  0  0  0  0  0  0  0  0
    2.2650   67.4670   66.2940 O   0  0  0  0  0  0  0  0  0  0  0  0
   -0.5680   67.9130   67.1640 C   0  0  0  0  0  0  0  0  0  0  0  0
   -1.7840   68.0460   67.2990 O   0  0  0  0  0  0  0  0  0  0  0  0
    0.2090   67.2500   68.0870 N   0  0  0  0  0  0  0  0  0  0  0  0
    3.8280   69.0700   63.6480 C   0  0  0  0  0  0  0  0  0  0  0  0
    2.7490   68.0230   63.4180 C   0  0  0  0  0  0  0  0  0  0  0  0
    2.9728   65.7978   70.3090 H   0  0  0  0  0  0  0  0  0  0  0  0
    4.2050   63.6361   70.4957 H   0  0  0  0  0  0  0  0  0  0  0  0
    0.4677   61.5809   71.2523 H   0  0  0  0  0  0  0  0  0  0  0  0
   -0.7579   63.7484   71.0864 H   0  0  0  0  0  0  0  0  0  0  0  0
    1.5371   60.5504   72.4072 H   0  0  0  0  0  0  0  0  0  0  0  0
    0.7522   58.8151   73.3049 H   0  0  0  0  0  0  0  0  0  0  0  0
    2.1615   56.2353   72.6910 H   0  0  0  0  0  0  0  0  0  0  0  0
   -0.3410   56.4258   72.3966 H   0  0  0  0  0  0  0  0  0  0  0  0
    0.2406   55.1025   73.5079 H   0  0  0  0  0  0  0  0  0  0  0  0
   -1.0025   57.7649   74.2892 H   0  0  0  0  0  0  0  0  0  0  0  0
   -1.6841   56.0838   74.4866 H   0  0  0  0  0  0  0  0  0  0  0  0
   -0.7696   57.1591   76.5774 H   0  0  0  0  0  0  0  0  0  0  0  0
    1.1595   58.3044   75.7674 H   0  0  0  0  0  0  0  0  0  0  0  0
    1.7258   56.9518   76.8518 H   0  0  0  0  0  0  0  0  0  0  0  0
    3.1077   57.2537   74.7896 H   0  0  0  0  0  0  0  0  0  0  0  0
    2.3428   55.6139   74.9785 H   0  0  0  0  0  0  0  0  0  0  0  0
   -0.1208   55.1296   77.4689 H   0  0  0  0  0  0  0  0  0  0  0  0
   -1.0116   54.6147   75.9965 H   0  0  0  0  0  0  0  0  0  0  0  0
    0.7845   54.6407   75.9965 H   0  0  0  0  0  0  0  0  0  0  0  0
   -0.5234   66.3026   71.0888 H   0  0  0  0  0  0  0  0  0  0  0  0
    1.0106   67.0005   70.3705 H   0  0  0  0  0  0  0  0  0  0  0  0
   -0.2374   65.2483   68.4569 H   0  0  0  0  0  0  0  0  0  0  0  0
   -1.4392   66.4694   69.0685 H   0  0  0  0  0  0  0  0  0  0  0  0
   -0.8133   70.1135   62.5604 H   0  0  0  0  0  0  0  0  0  0  0  0
    0.7983   69.6589   61.9102 H   0  0  0  0  0  0  0  0  0  0  0  0
   -0.5406   68.4614   61.9102 H   0  0  0  0  0  0  0  0  0  0  0  0
   -0.9581   69.9242   65.1439 H   0  0  0  0  0  0  0  0  0  0  0  0
   -1.5831   68.3455   64.7318 H   0  0  0  0  0  0  0  0  0  0  0  0
    1.2092   67.4801   68.1744 H   0  0  0  0  0  0  0  0  0  0  0  0
    3.9756   69.2132   64.7286 H   0  0  0  0  0  0  0  0  0  0  0  0
    4.7699   68.7324   63.1909 H   0  0  0  0  0  0  0  0  0  0  0  0
    3.5189   70.0216   63.1909 H   0  0  0  0  0  0  0  0  0  0  0  0
    3.1342   67.0409   63.7296 H   0  0  0  0  0  0  0  0  0  0  0  0
    2.4924   68.0269   62.3484 H   0  0  0  0  0  0  0  0  0  0  0  0
  2  1  2  0
  3  2  1  0
  4  3  2  0
  5  4  1  0
  6  1  1  0
  6  5  2  0
  7  4  1  0
  8  7  2  0
  9  7  2  0
 10  7  1  0
 11 10  1  0
 12 11  2  0
 13 11  1  0
 14 13  1  0
 15 14  1  0
 16 15  1  0
 17 16  1  0
 18 17  1  0
 19 18  1  0
 19 14  1  0
 20 17  1  0
 21  1  1  0
 22 21  1  0
 24 23  2  0
 25 24  1  0
 26 24  1  0
 27 26  1  0
 28 27  1  0
 28 23  1  0
 29 28  2  0
 30 27  1  0
 31 30  2  0
 32 30  1  0
 32 22  1  0
 34 23  1  0
 34 33  1  0
  2 35  1  0
  3 36  1  0
  5 37  1  0
  6 38  1  0
 10 39  1  0
 13 40  1  0
 14 41  1  6
 15 42  1  0
 15 43  1  0
 16 44  1  0
 16 45  1  0
 17 46  1  1
 18 47  1  0
 18 48  1  0
 19 49  1  0
 19 50  1  0
 20 51  1  0
 20 52  1  0
 20 53  1  0
 21 54  1  0
 21 55  1  0
 22 56  1  0
 22 57  1  0
 25 58  1  0
 25 59  1  0
 25 60  1  0
 26 61  1  0
 26 62  1  0
 32 63  1  0
 33 64  1  0
 33 65  1  0
 33 66  1  0
 34 67  1  0
 34 68  1  0
M  END
>  <score>  (3) 
-10.814

$$$$
=
     RDKit          3D

 68 70  0  0  0  0  0  0  0  0999 V2000
    0.8860   65.0570   70.9540 C   0  0  0  0  0  0  0  0  0  0  0  0
    0.0810   65.6350   71.9480 C   0  0  0  0  0  0  0  0  0  0  0  0
   -0.2400   64.9250   73.1040 C   0  0  0  0  0  0  0  0  0  0  0  0
    0.2410   63.6240   73.2620 C   0  0  0  0  0  0  0  0  0  0  0  0
    1.0120   63.0190   72.2660 C   0  0  0  0  0  0  0  0  0  0  0  0
    1.3230   63.7340   71.1090 C   0  0  0  0  0  0  0  0  0  0  0  0
   -0.0560   62.7590   74.7930 S   0  0  0  0  0  6  0  0  0  0  0  0
    0.8670   63.3110   75.7600 O   0  0  0  0  0  0  0  0  0  0  0  0
   -1.4870   62.7630   75.0010 O   0  0  0  0  0  0  0  0  0  0  0  0
    0.4350   61.2270   74.3600 N   0  0  0  0  0  0  0  0  0  0  0  0
    0.5330   60.1920   75.2750 C   0  0  0  0  0  0  0  0  0  0  0  0
    0.2600   60.3030   76.4580 O   0  0  0  0  0  0  0  0  0  0  0  0
    0.9580   59.0320   74.6900 N   0  0  0  0  0  0  0  0  0  0  0  0
    1.0070   57.7760   75.4340 C   0  0  2  0  0  0  0  0  0  0  0  0
    1.9970   56.8030   74.7860 C   0  0  0  0  0  0  0  0  0  0  0  0
    1.4840   56.2110   73.4710 C   0  0  0  0  0  0  0  0  0  0  0  0
    0.0860   55.5910   73.5920 C   0  0  2  0  0  0  0  0  0  0  0  0
   -0.8970   56.5770   74.2370 C   0  0  0  0  0  0  0  0  0  0  0  0
   -0.3900   57.1530   75.5600 C   0  0  0  0  0  0  0  0  0  0  0  0
    0.1230   54.2570   74.3440 C   0  0  0  0  0  0  0  0  0  0  0  0
    1.3730   65.9020   69.7950 C   0  0  0  0  0  0  0  0  0  0  0  0
    0.2790   66.7780   69.1490 C   0  0  0  0  0  0  0  0  0  0  0  0
    4.2880   69.9030   66.9910 C   0  0  0  0  0  0  0  0  0  0  0  0
    4.1990   69.3710   65.7630 C   0  0  0  0  0  0  0  0  0  0  0  0
    5.1820   69.4550   64.6470 C   0  0  0  0  0  0  0  0  0  0  0  0
    2.9430   68.5870   65.5710 C   0  0  0  0  0  0  0  0  0  0  0  0
    2.2960   68.7220   66.8470 N   0  0  0  0  0  0  0  0  0  0  0  0
    3.0750   69.4740   67.7210 C   0  0  0  0  0  0  0  0  0  0  0  0
    2.8290   69.7650   68.8820 O   0  0  0  0  0  0  0  0  0  0  0  0
    1.2680   67.8560   67.1780 C   0  0  0  0  0  0  0  0  0  0  0  0
    0.8360   67.0160   66.3900 O   0  0  0  0  0  0  0  0  0  0  0  0
    0.8260   67.9450   68.4780 N   0  0  0  0  0  0  0  0  0  0  0  0
    6.7470   70.1580   67.3120 C   0  0  0  0  0  0  0  0  0  0  0  0
    5.3640   70.6950   67.6460 C   0  0  0  0  0  0  0  0  0  0  0  0
   -0.3002   66.6580   71.8136 H   0  0  0  0  0  0  0  0  0  0  0  0
   -0.8655   65.3849   73.8832 H   0  0  0  0  0  0  0  0  0  0  0  0
    1.3710   61.9870   72.3931 H   0  0  0  0  0  0  0  0  0  0  0  0
    1.9145   63.2568   70.3138 H   0  0  0  0  0  0  0  0  0  0  0  0
    0.6745   61.0428   73.3753 H   0  0  0  0  0  0  0  0  0  0  0  0
    1.2502   59.0439   73.7024 H   0  0  0  0  0  0  0  0  0  0  0  0
    1.3632   57.9929   76.4519 H   0  0  0  0  0  0  0  0  0  0  0  0
    2.9355   57.3405   74.5853 H   0  0  0  0  0  0  0  0  0  0  0  0
    2.1423   55.9678   75.4870 H   0  0  0  0  0  0  0  0  0  0  0  0
    1.4473   57.0119   72.7179 H   0  0  0  0  0  0  0  0  0  0  0  0
    2.1753   55.4050   73.1837 H   0  0  0  0  0  0  0  0  0  0  0  0
   -0.2742   55.3762   72.5751 H   0  0  0  0  0  0  0  0  0  0  0  0
   -1.0691   57.4078   73.5369 H   0  0  0  0  0  0  0  0  0  0  0  0
   -1.8217   56.0223   74.4544 H   0  0  0  0  0  0  0  0  0  0  0  0
   -1.0926   57.9284   75.8992 H   0  0  0  0  0  0  0  0  0  0  0  0
   -0.3223   56.3247   76.2806 H   0  0  0  0  0  0  0  0  0  0  0  0
    0.1177   54.4466   75.4275 H   0  0  0  0  0  0  0  0  0  0  0  0
   -0.7589   53.6583   74.0722 H   0  0  0  0  0  0  0  0  0  0  0  0
    1.0367   53.7081   74.0722 H   0  0  0  0  0  0  0  0  0  0  0  0
    2.1726   66.5626   70.1614 H   0  0  0  0  0  0  0  0  0  0  0  0
    1.7198   65.2045   69.0183 H   0  0  0  0  0  0  0  0  0  0  0  0
   -0.2692   66.1721   68.4126 H   0  0  0  0  0  0  0  0  0  0  0  0
   -0.3828   67.1335   69.9525 H   0  0  0  0  0  0  0  0  0  0  0  0
    6.1982   69.5418   65.0592 H   0  0  0  0  0  0  0  0  0  0  0  0
    5.1134   68.5477   64.0288 H   0  0  0  0  0  0  0  0  0  0  0  0
    4.9604   70.3375   64.0288 H   0  0  0  0  0  0  0  0  0  0  0  0
    2.3271   69.0134   64.7655 H   0  0  0  0  0  0  0  0  0  0  0  0
    3.1184   67.5419   65.2759 H   0  0  0  0  0  0  0  0  0  0  0  0
    0.8832   68.8436   68.9781 H   0  0  0  0  0  0  0  0  0  0  0  0
    7.2928   69.9461   68.2432 H   0  0  0  0  0  0  0  0  0  0  0  0
    6.6492   69.2325   66.7256 H   0  0  0  0  0  0  0  0  0  0  0  0
    7.2994   70.9070   66.7256 H   0  0  0  0  0  0  0  0  0  0  0  0
    5.2956   71.7384   67.3045 H   0  0  0  0  0  0  0  0  0  0  0  0
    5.2247   70.6241   68.7348 H   0  0  0  0  0  0  0  0  0  0  0  0
  2  1  2  0
  3  2  1  0
  4  3  2  0
  5  4  1  0
  6  1  1  0
  6  5  2  0
  7  4  1  0
  8  7  2  0
  9  7  2  0
 10  7  1  0
 11 10  1  0
 12 11  2  0
 13 11  1  0
 14 13  1  0
 15 14  1  0
 16 15  1  0
 17 16  1  0
 18 17  1  0
 19 18  1  0
 19 14  1  0
 20 17  1  0
 21  1  1  0
 22 21  1  0
 24 23  2  0
 25 24  1  0
 26 24  1  0
 27 26  1  0
 28 27  1  0
 28 23  1  0
 29 28  2  0
 30 27  1  0
 31 30  2  0
 32 30  1  0
 32 22  1  0
 34 23  1  0
 34 33  1  0
  2 35  1  0
  3 36  1  0
  5 37  1  0
  6 38  1  0
 10 39  1  0
 13 40  1  0
 14 41  1  1
 15 42  1  0
 15 43  1  0
 16 44  1  0
 16 45  1  0
 17 46  1  6
 18 47  1  0
 18 48  1  0
 19 49  1  0
 19 50  1  0
 20 51  1  0
 20 52  1  0
 20 53  1  0
 21 54  1  0
 21 55  1  0
 22 56  1  0
 22 57  1  0
 25 58  1  0
 25 59  1  0
 25 60  1  0
 26 61  1  0
 26 62  1  0
 32 63  1  0
 33 64  1  0
 33 65  1  0
 33 66  1  0
 34 67  1  0
 34 68  1  0
M  END
>  <score>  (4) 
-10.108

$$$$
=
     RDKit          3D

 68 70  0  0  0  0  0  0  0  0999 V2000
    1.4510   64.6270   70.8930 C   0  0  0  0  0  0  0  0  0  0  0  0
    2.3210   63.5250   70.9200 C   0  0  0  0  0  0  0  0  0  0  0  0
    2.0430   62.4210   71.7240 C   0  0  0  0  0  0  0  0  0  0  0  0
    0.8910   62.4220   72.5120 C   0  0  0  0  0  0  0  0  0  0  0  0
    0.0340   63.5260   72.5270 C   0  0  0  0  0  0  0  0  0  0  0  0
    0.3230   64.6300   71.7250 C   0  0  0  0  0  0  0  0  0  0  0  0
    0.4610   60.9620   73.4420 S   0  0  0  0  0  6  0  0  0  0  0  0
    0.8100   59.8310   72.6110 O   0  0  0  0  0  0  0  0  0  0  0  0
    1.0040   61.1410   74.7700 O   0  0  0  0  0  0  0  0  0  0  0  0
   -1.1960   61.1290   73.4950 N   0  0  0  0  0  0  0  0  0  0  0  0
   -1.9810   60.4510   74.4110 C   0  0  0  0  0  0  0  0  0  0  0  0
   -1.5380   59.6920   75.2560 O   0  0  0  0  0  0  0  0  0  0  0  0
   -3.3080   60.7430   74.2620 N   0  0  0  0  0  0  0  0  0  0  0  0
   -4.3090   60.2480   75.2020 C   0  0  2  0  0  0  0  0  0  0  0  0
   -5.4780   59.5970   74.4550 C   0  0  0  0  0  0  0  0  0  0  0  0
   -6.3810   60.6130   73.7530 C   0  0  0  0  0  0  0  0  0  0  0  0
   -6.8650   61.7350   74.6810 C   0  0  2  0  0  0  0  0  0  0  0  0
   -5.6850   62.3820   75.4200 C   0  0  0  0  0  0  0  0  0  0  0  0
   -4.7950   61.3650   76.1360 C   0  0  0  0  0  0  0  0  0  0  0  0
   -7.9370   61.2390   75.6550 C   0  0  0  0  0  0  0  0  0  0  0  0
    1.6720   65.7340   69.8830 C   0  0  0  0  0  0  0  0  0  0  0  0
    0.4150   66.5770   69.5860 C   0  0  0  0  0  0  0  0  0  0  0  0
    2.9920   69.0710   65.3880 C   0  0  0  0  0  0  0  0  0  0  0  0
    2.1450   68.6210   64.4500 C   0  0  0  0  0  0  0  0  0  0  0  0
    2.3350   68.5900   62.9740 C   0  0  0  0  0  0  0  0  0  0  0  0
    0.8850   68.0740   65.0360 C   0  0  0  0  0  0  0  0  0  0  0  0
    1.0950   68.2560   66.4460 N   0  0  0  0  0  0  0  0  0  0  0  0
    2.3420   68.8210   66.6930 C   0  0  0  0  0  0  0  0  0  0  0  0
    2.8380   69.0940   67.7750 O   0  0  0  0  0  0  0  0  0  0  0  0
    0.2990   67.5630   67.3420 C   0  0  0  0  0  0  0  0  0  0  0  0
   -0.6330   66.8470   66.9770 O   0  0  0  0  0  0  0  0  0  0  0  0
    0.6800   67.6650   68.6600 N   0  0  0  0  0  0  0  0  0  0  0  0
    5.3730   68.5960   64.8240 C   0  0  0  0  0  0  0  0  0  0  0  0
    4.3650   69.6370   65.2860 C   0  0  0  0  0  0  0  0  0  0  0  0
    3.2302   63.5332   70.3009 H   0  0  0  0  0  0  0  0  0  0  0  0
    2.7246   61.5577   71.7374 H   0  0  0  0  0  0  0  0  0  0  0  0
   -0.8612   63.5242   73.1662 H   0  0  0  0  0  0  0  0  0  0  0  0
   -0.3385   65.5086   71.7456 H   0  0  0  0  0  0  0  0  0  0  0  0
   -1.6528   61.7601   72.8212 H   0  0  0  0  0  0  0  0  0  0  0  0
   -3.6086   61.3260   73.4678 H   0  0  0  0  0  0  0  0  0  0  0  0
   -3.8367   59.4778   75.8294 H   0  0  0  0  0  0  0  0  0  0  0  0
   -5.0711   58.9091   73.6992 H   0  0  0  0  0  0  0  0  0  0  0  0
   -6.0926   59.0718   75.2010 H   0  0  0  0  0  0  0  0  0  0  0  0
   -5.8191   61.0646   72.9222 H   0  0  0  0  0  0  0  0  0  0  0  0
   -7.2721   60.0712   73.4032 H   0  0  0  0  0  0  0  0  0  0  0  0
   -7.3335   62.5087   74.0551 H   0  0  0  0  0  0  0  0  0  0  0  0
   -5.0723   62.9300   74.6891 H   0  0  0  0  0  0  0  0  0  0  0  0
   -6.1047   63.0485   76.1879 H   0  0  0  0  0  0  0  0  0  0  0  0
   -3.9186   61.8893   76.5446 H   0  0  0  0  0  0  0  0  0  0  0  0
   -5.3944   60.8981   76.9314 H   0  0  0  0  0  0  0  0  0  0  0  0
   -7.5949   61.3973   76.6884 H   0  0  0  0  0  0  0  0  0  0  0  0
   -8.8703   61.7968   75.4882 H   0  0  0  0  0  0  0  0  0  0  0  0
   -8.1160   60.1666   75.4882 H   0  0  0  0  0  0  0  0  0  0  0  0
    2.4534   66.4041   70.2707 H   0  0  0  0  0  0  0  0  0  0  0  0
    1.9582   65.2484   68.9384 H   0  0  0  0  0  0  0  0  0  0  0  0
   -0.3538   65.9222   69.1500 H   0  0  0  0  0  0  0  0  0  0  0  0
    0.0784   67.0204   70.5347 H   0  0  0  0  0  0  0  0  0  0  0  0
    3.3968   68.4168   62.7445 H   0  0  0  0  0  0  0  0  0  0  0  0
    1.7297   67.7787   62.5433 H   0  0  0  0  0  0  0  0  0  0  0  0
    2.0190   69.5516   62.5433 H   0  0  0  0  0  0  0  0  0  0  0  0
    0.0070   68.6382   64.6885 H   0  0  0  0  0  0  0  0  0  0  0  0
    0.6861   67.0299   64.7528 H   0  0  0  0  0  0  0  0  0  0  0  0
    1.1552   68.5164   68.9919 H   0  0  0  0  0  0  0  0  0  0  0  0
    5.8352   68.1187   65.7007 H   0  0  0  0  0  0  0  0  0  0  0  0
    4.8612   67.8334   64.2186 H   0  0  0  0  0  0  0  0  0  0  0  0
    6.1517   69.0830   64.2186 H   0  0  0  0  0  0  0  0  0  0  0  0
    4.3550   70.4674   64.5647 H   0  0  0  0  0  0  0  0  0  0  0  0
    4.6664   69.9844   66.2852 H   0  0  0  0  0  0  0  0  0  0  0  0
  2  1  2  0
  3  2  1  0
  4  3  2  0
  5  4  1  0
  6  1  1  0
  6  5  2  0
  7  4  1  0
  8  7  2  0
  9  7  2  0
 10  7  1  0
 11 10  1  0
 12 11  2  0
 13 11  1  0
 14 13  1  0
 15 14  1  0
 16 15  1  0
 17 16  1  0
 18 17  1  0
 19 18  1  0
 19 14  1  0
 20 17  1  0
 21  1  1  0
 22 21  1  0
 24 23  2  0
 25 24  1  0
 26 24  1  0
 27 26  1  0
 28 27  1  0
 28 23  1  0
 29 28  2  0
 30 27  1  0
 31 30  2  0
 32 30  1  0
 32 22  1  0
 34 23  1  0
 34 33  1  0
  2 35  1  0
  3 36  1  0
  5 37  1  0
  6 38  1  0
 10 39  1  0
 13 40  1  0
 14 41  1  1
 15 42  1  0
 15 43  1  0
 16 44  1  0
 16 45  1  0
 17 46  1  6
 18 47  1  0
 18 48  1  0
 19 49  1  0
 19 50  1  0
 20 51  1  0
 20 52  1  0
 20 53  1  0
 21 54  1  0
 21 55  1  0
 22 56  1  0
 22 57  1  0
 25 58  1  0
 25 59  1  0
 25 60  1  0
 26 61  1  0
 26 62  1  0
 32 63  1  0
 33 64  1  0
 33 65  1  0
 33 66  1  0
 34 67  1  0
 34 68  1  0
M  END
>  <score>  (5) 
-9.787

$$$$
=
     RDKit          3D

 68 70  0  0  0  0  0  0  0  0999 V2000
    0.6920   65.0900   70.1370 C   0  0  0  0  0  0  0  0  0  0  0  0
    2.0910   65.1600   70.0420 C   0  0  0  0  0  0  0  0  0  0  0  0
    2.8840   64.0870   70.4440 C   0  0  0  0  0  0  0  0  0  0  0  0
    2.2740   62.9380   70.9520 C   0  0  0  0  0  0  0  0  0  0  0  0
    0.8850   62.8660   71.0900 C   0  0  0  0  0  0  0  0  0  0  0  0
    0.0980   63.9470   70.6920 C   0  0  0  0  0  0  0  0  0  0  0  0
    3.2730   61.5140   71.3440 S   0  0  0  0  0  6  0  0  0  0  0  0
    3.5910   60.8780   70.0850 O   0  0  0  0  0  0  0  0  0  0  0  0
    4.2960   61.9640   72.2610 O   0  0  0  0  0  0  0  0  0  0  0  0
    2.1560   60.5960   72.1710 N   0  0  0  0  0  0  0  0  0  0  0  0
    2.5070   59.4550   72.8750 C   0  0  0  0  0  0  0  0  0  0  0  0
    3.6480   59.0350   72.9610 O   0  0  0  0  0  0  0  0  0  0  0  0
    1.4250   58.8670   73.4680 N   0  0  0  0  0  0  0  0  0  0  0  0
    1.5730   57.7300   74.3700 C   0  0  2  0  0  0  0  0  0  0  0  0
    1.2790   56.4160   73.6370 C   0  0  0  0  0  0  0  0  0  0  0  0
   -0.2090   56.2160   73.3410 C   0  0  0  0  0  0  0  0  0  0  0  0
   -1.0990   56.3770   74.5800 C   0  0  2  0  0  0  0  0  0  0  0  0
   -0.7980   57.6980   75.3020 C   0  0  0  0  0  0  0  0  0  0  0  0
    0.6870   57.8880   75.6130 C   0  0  0  0  0  0  0  0  0  0  0  0
   -0.9770   55.1770   75.5240 C   0  0  0  0  0  0  0  0  0  0  0  0
   -0.1590   66.1870   69.5310 C   0  0  0  0  0  0  0  0  0  0  0  0
    0.6370   67.2220   68.7090 C   0  0  0  0  0  0  0  0  0  0  0  0
    0.7460   68.9160   63.4540 C   0  0  0  0  0  0  0  0  0  0  0  0
    1.9290   68.3480   63.1760 C   0  0  0  0  0  0  0  0  0  0  0  0
    2.8330   68.6160   62.0230 C   0  0  0  0  0  0  0  0  0  0  0  0
    2.3400   67.3520   64.2090 C   0  0  0  0  0  0  0  0  0  0  0  0
    1.2460   67.4010   65.1390 N   0  0  0  0  0  0  0  0  0  0  0  0
    0.2960   68.3340   64.7380 C   0  0  0  0  0  0  0  0  0  0  0  0
   -0.7440   68.6340   65.3050 O   0  0  0  0  0  0  0  0  0  0  0  0
    1.4140   66.8720   66.4080 C   0  0  0  0  0  0  0  0  0  0  0  0
    2.4450   66.2920   66.7480 O   0  0  0  0  0  0  0  0  0  0  0  0
    0.3810   67.1150   67.2830 N   0  0  0  0  0  0  0  0  0  0  0  0
   -0.0180   69.7950   61.2510 C   0  0  0  0  0  0  0  0  0  0  0  0
   -0.0220   69.9840   62.7600 C   0  0  0  0  0  0  0  0  0  0  0  0
    2.5655   66.0702   69.6466 H   0  0  0  0  0  0  0  0  0  0  0  0
    3.9794   64.1444   70.3620 H   0  0  0  0  0  0  0  0  0  0  0  0
    0.4159   61.9637   71.5093 H   0  0  0  0  0  0  0  0  0  0  0  0
   -0.9943   63.9027   70.8141 H   0  0  0  0  0  0  0  0  0  0  0  0
    1.1680   60.8870   72.1587 H   0  0  0  0  0  0  0  0  0  0  0  0
    0.4830   59.2353   73.2735 H   0  0  0  0  0  0  0  0  0  0  0  0
    2.6175   57.6997   74.7137 H   0  0  0  0  0  0  0  0  0  0  0  0
    1.8290   56.4155   72.6844 H   0  0  0  0  0  0  0  0  0  0  0  0
    1.5968   55.5940   74.2953 H   0  0  0  0  0  0  0  0  0  0  0  0
   -0.5186   56.9572   72.5895 H   0  0  0  0  0  0  0  0  0  0  0  0
   -0.3346   55.1844   72.9803 H   0  0  0  0  0  0  0  0  0  0  0  0
   -2.1444   56.4111   74.2393 H   0  0  0  0  0  0  0  0  0  0  0  0
   -1.1309   58.5295   74.6634 H   0  0  0  0  0  0  0  0  0  0  0  0
   -1.3336   57.6757   76.2626 H   0  0  0  0  0  0  0  0  0  0  0  0
    0.8347   58.8970   76.0255 H   0  0  0  0  0  0  0  0  0  0  0  0
    0.9798   57.1097   76.3331 H   0  0  0  0  0  0  0  0  0  0  0  0
   -1.0124   55.5256   76.5667 H   0  0  0  0  0  0  0  0  0  0  0  0
   -1.8090   54.4809   75.3416 H   0  0  0  0  0  0  0  0  0  0  0  0
   -0.0219   54.6626   75.3416 H   0  0  0  0  0  0  0  0  0  0  0  0
   -0.9042   65.7204   68.8699 H   0  0  0  0  0  0  0  0  0  0  0  0
   -0.6164   66.7327   70.3695 H   0  0  0  0  0  0  0  0  0  0  0  0
    0.3543   68.2311   69.0435 H   0  0  0  0  0  0  0  0  0  0  0  0
    1.7072   67.0271   68.8722 H   0  0  0  0  0  0  0  0  0  0  0  0
    3.8253   68.9102   62.3957 H   0  0  0  0  0  0  0  0  0  0  0  0
    2.9260   67.7068   61.4109 H   0  0  0  0  0  0  0  0  0  0  0  0
    2.4154   69.4290   61.4109 H   0  0  0  0  0  0  0  0  0  0  0  0
    2.4467   66.3478   63.7730 H   0  0  0  0  0  0  0  0  0  0  0  0
    3.3157   67.5717   64.6670 H   0  0  0  0  0  0  0  0  0  0  0  0
   -0.5790   67.2217   66.9254 H   0  0  0  0  0  0  0  0  0  0  0  0
    0.0047   68.7206   61.0161 H   0  0  0  0  0  0  0  0  0  0  0  0
   -0.9259   70.2448   60.8227 H   0  0  0  0  0  0  0  0  0  0  0  0
    0.8700   70.2828   60.8227 H   0  0  0  0  0  0  0  0  0  0  0  0
   -1.0618   69.9645   63.1182 H   0  0  0  0  0  0  0  0  0  0  0  0
    0.4562   70.9489   62.9843 H   0  0  0  0  0  0  0  0  0  0  0  0
  2  1  2  0
  3  2  1  0
  4  3  2  0
  5  4  1  0
  6  1  1  0
  6  5  2  0
  7  4  1  0
  8  7  2  0
  9  7  2  0
 10  7  1  0
 11 10  1  0
 12 11  2  0
 13 11  1  0
 14 13  1  0
 15 14  1  0
 16 15  1  0
 17 16  1  0
 18 17  1  0
 19 18  1  0
 19 14  1  0
 20 17  1  0
 21  1  1  0
 22 21  1  0
 24 23  2  0
 25 24  1  0
 26 24  1  0
 27 26  1  0
 28 27  1  0
 28 23  1  0
 29 28  2  0
 30 27  1  0
 31 30  2  0
 32 30  1  0
 32 22  1  0
 34 23  1  0
 34 33  1  0
  2 35  1  0
  3 36  1  0
  5 37  1  0
  6 38  1  0
 10 39  1  0
 13 40  1  0
 14 41  1  1
 15 42  1  0
 15 43  1  0
 16 44  1  0
 16 45  1  0
 17 46  1  6
 18 47  1  0
 18 48  1  0
 19 49  1  0
 19 50  1  0
 20 51  1  0
 20 52  1  0
 20 53  1  0
 21 54  1  0
 21 55  1  0
 22 56  1  0
 22 57  1  0
 25 58  1  0
 25 59  1  0
 25 60  1  0
 26 61  1  0
 26 62  1  0
 32 63  1  0
 33 64  1  0
 33 65  1  0
 33 66  1  0
 34 67  1  0
 34 68  1  0
M  END
>  <score>  (6) 
-9.655

$$$$
=
     RDKit          3D

 68 70  0  0  0  0  0  0  0  0999 V2000
    0.8120   66.3620   69.6770 C   0  0  0  0  0  0  0  0  0  0  0  0
   -0.4930   66.0250   69.2860 C   0  0  0  0  0  0  0  0  0  0  0  0
   -1.1580   66.7670   68.3110 C   0  0  0  0  0  0  0  0  0  0  0  0
   -0.5130   67.8600   67.7280 C   0  0  0  0  0  0  0  0  0  0  0  0
    0.7710   68.2340   68.1310 C   0  0  0  0  0  0  0  0  0  0  0  0
    1.4260   67.4900   69.1130 C   0  0  0  0  0  0  0  0  0  0  0  0
   -1.3050   68.7330   66.3890 S   0  0  0  0  0  6  0  0  0  0  0  0
   -2.1950   67.7870   65.7530 O   0  0  0  0  0  0  0  0  0  0  0  0
   -1.7730   69.9890   66.9320 O   0  0  0  0  0  0  0  0  0  0  0  0
    0.0120   69.0120   65.4070 N   0  0  0  0  0  0  0  0  0  0  0  0
    0.8740   68.0010   65.0170 C   0  0  0  0  0  0  0  0  0  0  0  0
    0.7430   66.8340   65.3400 O   0  0  0  0  0  0  0  0  0  0  0  0
    1.8800   68.4690   64.2180 N   0  0  0  0  0  0  0  0  0  0  0  0
    2.8300   67.5630   63.5790 C   0  0  2  0  0  0  0  0  0  0  0  0
    4.0690   67.3690   64.4600 C   0  0  0  0  0  0  0  0  0  0  0  0
    4.9830   68.5960   64.4860 C   0  0  0  0  0  0  0  0  0  0  0  0
    5.3640   69.0970   63.0870 C   0  0  2  0  0  0  0  0  0  0  0  0
    4.1140   69.2910   62.2160 C   0  0  0  0  0  0  0  0  0  0  0  0
    3.2120   68.0580   62.1770 C   0  0  0  0  0  0  0  0  0  0  0  0
    6.3830   68.1730   62.4140 C   0  0  0  0  0  0  0  0  0  0  0  0
    1.5820   65.4420   70.6000 C   0  0  0  0  0  0  0  0  0  0  0  0
    1.0470   63.9950   70.6410 C   0  0  0  0  0  0  0  0  0  0  0  0
    2.8390   59.0810   72.4100 C   0  0  0  0  0  0  0  0  0  0  0  0
    3.1740   58.6360   71.1900 C   0  0  0  0  0  0  0  0  0  0  0  0
    3.4470   57.2360   70.7620 C   0  0  0  0  0  0  0  0  0  0  0  0
    3.2350   59.7340   70.1800 C   0  0  0  0  0  0  0  0  0  0  0  0
    2.8920   60.8910   70.9590 N   0  0  0  0  0  0  0  0  0  0  0  0
    2.6270   60.5390   72.2780 C   0  0  0  0  0  0  0  0  0  0  0  0
    2.2950   61.2740   73.1960 O   0  0  0  0  0  0  0  0  0  0  0  0
    2.5080   62.0520   70.3100 C   0  0  0  0  0  0  0  0  0  0  0  0
    2.5190   62.1550   69.0840 O   0  0  0  0  0  0  0  0  0  0  0  0
    2.0350   63.0500   71.1310 N   0  0  0  0  0  0  0  0  0  0  0  0
    3.7040   58.6340   74.7050 C   0  0  0  0  0  0  0  0  0  0  0  0
    2.6020   58.3630   73.6910 C   0  0  0  0  0  0  0  0  0  0  0  0
   -0.9965   65.1662   69.7539 H   0  0  0  0  0  0  0  0  0  0  0  0
   -2.1788   66.4948   68.0044 H   0  0  0  0  0  0  0  0  0  0  0  0
    1.2618   69.1080   67.6779 H   0  0  0  0  0  0  0  0  0  0  0  0
    2.4302   67.7900   69.4470 H   0  0  0  0  0  0  0  0  0  0  0  0
    0.1914   69.9715   65.0781 H   0  0  0  0  0  0  0  0  0  0  0  0
    1.9696   69.4834   64.0634 H   0  0  0  0  0  0  0  0  0  0  0  0
    2.3425   66.5841   63.4601 H   0  0  0  0  0  0  0  0  0  0  0  0
    3.7386   67.1563   65.4874 H   0  0  0  0  0  0  0  0  0  0  0  0
    4.6482   66.5365   64.0340 H   0  0  0  0  0  0  0  0  0  0  0  0
    4.4642   69.4069   65.0182 H   0  0  0  0  0  0  0  0  0  0  0  0
    5.9140   68.2988   64.9910 H   0  0  0  0  0  0  0  0  0  0  0  0
    5.8483   70.0779   63.2025 H   0  0  0  0  0  0  0  0  0  0  0  0
    3.5350   70.1355   62.6180 H   0  0  0  0  0  0  0  0  0  0  0  0
    4.4571   69.4785   61.1878 H   0  0  0  0  0  0  0  0  0  0  0  0
    2.2920   68.3114   61.6298 H   0  0  0  0  0  0  0  0  0  0  0  0
    3.7704   67.2516   61.6791 H   0  0  0  0  0  0  0  0  0  0  0  0
    6.9646   67.6456   63.1844 H   0  0  0  0  0  0  0  0  0  0  0  0
    5.8549   67.4395   61.7871 H   0  0  0  0  0  0  0  0  0  0  0  0
    7.0615   68.7702   61.7871 H   0  0  0  0  0  0  0  0  0  0  0  0
    2.6290   65.4134   70.2638 H   0  0  0  0  0  0  0  0  0  0  0  0
    1.4717   65.8488   71.6160 H   0  0  0  0  0  0  0  0  0  0  0  0
    0.1690   63.9622   71.3028 H   0  0  0  0  0  0  0  0  0  0  0  0
    0.7890   63.7050   69.6118 H   0  0  0  0  0  0  0  0  0  0  0  0
    3.5713   56.5987   71.6500 H   0  0  0  0  0  0  0  0  0  0  0  0
    2.6042   56.8657   70.1600 H   0  0  0  0  0  0  0  0  0  0  0  0
    4.3672   57.2095   70.1600 H   0  0  0  0  0  0  0  0  0  0  0  0
    4.2448   59.8266   69.7538 H   0  0  0  0  0  0  0  0  0  0  0  0
    2.5722   59.5737   69.3169 H   0  0  0  0  0  0  0  0  0  0  0  0
    2.3832   63.1271   72.0973 H   0  0  0  0  0  0  0  0  0  0  0  0
    3.2985   58.5343   75.7227 H   0  0  0  0  0  0  0  0  0  0  0  0
    4.5195   57.9096   74.5626 H   0  0  0  0  0  0  0  0  0  0  0  0
    4.0905   59.6540   74.5626 H   0  0  0  0  0  0  0  0  0  0  0  0
    1.6415   58.6947   74.1123 H   0  0  0  0  0  0  0  0  0  0  0  0
    2.5905   57.2835   73.4800 H   0  0  0  0  0  0  0  0  0  0  0  0
  2  1  2  0
  3  2  1  0
  4  3  2  0
  5  4  1  0
  6  1  1  0
  6  5  2  0
  7  4  1  0
  8  7  2  0
  9  7  2  0
 10  7  1  0
 11 10  1  0
 12 11  2  0
 13 11  1  0
 14 13  1  0
 15 14  1  0
 16 15  1  0
 17 16  1  0
 18 17  1  0
 19 18  1  0
 19 14  1  0
 20 17  1  0
 21  1  1  0
 22 21  1  0
 24 23  2  0
 25 24  1  0
 26 24  1  0
 27 26  1  0
 28 27  1  0
 28 23  1  0
 29 28  2  0
 30 27  1  0
 31 30  2  0
 32 30  1  0
 32 22  1  0
 34 23  1  0
 34 33  1  0
  2 35  1  0
  3 36  1  0
  5 37  1  0
  6 38  1  0
 10 39  1  0
 13 40  1  0
 14 41  1  6
 15 42  1  0
 15 43  1  0
 16 44  1  0
 16 45  1  0
 17 46  1  1
 18 47  1  0
 18 48  1  0
 19 49  1  0
 19 50  1  0
 20 51  1  0
 20 52  1  0
 20 53  1  0
 21 54  1  0
 21 55  1  0
 22 56  1  0
 22 57  1  0
 25 58  1  0
 25 59  1  0
 25 60  1  0
 26 61  1  0
 26 62  1  0
 32 63  1  0
 33 64  1  0
 33 65  1  0
 33 66  1  0
 34 67  1  0
 34 68  1  0
M  END
>  <score>  (7) 
-9.401

$$$$
=
     RDKit          3D

 68 70  0  0  0  0  0  0  0  0999 V2000
    0.2090   63.7030   71.9660 C   0  0  0  0  0  0  0  0  0  0  0  0
   -0.3470   62.4140   71.9430 C   0  0  0  0  0  0  0  0  0  0  0  0
   -0.7330   61.7850   73.1260 C   0  0  0  0  0  0  0  0  0  0  0  0
   -0.5540   62.4480   74.3410 C   0  0  0  0  0  0  0  0  0  0  0  0
    0.0320   63.7150   74.3870 C   0  0  0  0  0  0  0  0  0  0  0  0
    0.4230   64.3350   73.2000 C   0  0  0  0  0  0  0  0  0  0  0  0
   -1.1650   61.7050   75.8440 S   0  0  0  0  0  6  0  0  0  0  0  0
   -0.5550   62.4310   76.9360 O   0  0  0  0  0  0  0  0  0  0  0  0
   -2.5990   61.5920   75.6980 O   0  0  0  0  0  0  0  0  0  0  0  0
   -0.4770   60.1930   75.7200 N   0  0  0  0  0  0  0  0  0  0  0  0
   -1.1580   59.1080   75.1960 C   0  0  0  0  0  0  0  0  0  0  0  0
   -2.3000   59.1630   74.7730 O   0  0  0  0  0  0  0  0  0  0  0  0
   -0.3940   57.9750   75.1990 N   0  0  0  0  0  0  0  0  0  0  0  0
   -0.8580   56.7400   74.5720 C   0  0  2  0  0  0  0  0  0  0  0  0
   -0.9430   55.6090   75.6030 C   0  0  0  0  0  0  0  0  0  0  0  0
    0.4280   55.0860   76.0340 C   0  0  0  0  0  0  0  0  0  0  0  0
    1.3270   54.7000   74.8530 C   0  0  2  0  0  0  0  0  0  0  0  0
    1.4090   55.8420   73.8300 C   0  0  0  0  0  0  0  0  0  0  0  0
    0.0370   56.3500   73.3870 C   0  0  0  0  0  0  0  0  0  0  0  0
    0.8720   53.3900   74.2020 C   0  0  0  0  0  0  0  0  0  0  0  0
    0.4530   64.4400   70.6660 C   0  0  0  0  0  0  0  0  0  0  0  0
    1.9430   64.6780   70.3460 C   0  0  0  0  0  0  0  0  0  0  0  0
    3.0390   59.7290   72.5350 C   0  0  0  0  0  0  0  0  0  0  0  0
    3.1790   59.1100   71.3530 C   0  0  0  0  0  0  0  0  0  0  0  0
    3.1720   57.6480   71.0710 C   0  0  0  0  0  0  0  0  0  0  0  0
    3.3300   60.0710   70.2210 C   0  0  0  0  0  0  0  0  0  0  0  0
    3.2610   61.3440   70.8840 N   0  0  0  0  0  0  0  0  0  0  0  0
    3.0640   61.1800   72.2510 C   0  0  0  0  0  0  0  0  0  0  0  0
    2.9460   62.0520   73.1000 O   0  0  0  0  0  0  0  0  0  0  0  0
    3.0200   62.4830   70.1350 C   0  0  0  0  0  0  0  0  0  0  0  0
    2.9340   62.4580   68.9080 O   0  0  0  0  0  0  0  0  0  0  0  0
    2.7990   63.6270   70.8680 N   0  0  0  0  0  0  0  0  0  0  0  0
    4.0950   58.7340   74.5620 C   0  0  0  0  0  0  0  0  0  0  0  0
    2.8040   59.1970   73.9040 C   0  0  0  0  0  0  0  0  0  0  0  0
   -0.4794   61.8952   70.9821 H   0  0  0  0  0  0  0  0  0  0  0  0
   -1.1737   60.7774   73.1019 H   0  0  0  0  0  0  0  0  0  0  0  0
    0.1841   64.2203   75.3522 H   0  0  0  0  0  0  0  0  0  0  0  0
    0.9017   65.3249   73.2318 H   0  0  0  0  0  0  0  0  0  0  0  0
    0.4912   60.0606   76.0454 H   0  0  0  0  0  0  0  0  0  0  0  0
    0.5300   57.9923   75.6537 H   0  0  0  0  0  0  0  0  0  0  0  0
   -1.8695   56.9152   74.1769 H   0  0  0  0  0  0  0  0  0  0  0  0
   -1.4698   55.9850   76.4925 H   0  0  0  0  0  0  0  0  0  0  0  0
   -1.4790   54.7732   75.1296 H   0  0  0  0  0  0  0  0  0  0  0  0
    0.9338   55.8701   76.6165 H   0  0  0  0  0  0  0  0  0  0  0  0
    0.2583   54.1749   76.6266 H   0  0  0  0  0  0  0  0  0  0  0  0
    2.3403   54.5286   75.2452 H   0  0  0  0  0  0  0  0  0  0  0  0
    1.9626   56.6781   74.2823 H   0  0  0  0  0  0  0  0  0  0  0  0
    1.9163   55.4470   72.9375 H   0  0  0  0  0  0  0  0  0  0  0  0
    0.1781   57.2329   72.7463 H   0  0  0  0  0  0  0  0  0  0  0  0
   -0.4627   55.5327   72.8464 H   0  0  0  0  0  0  0  0  0  0  0  0
    0.6185   52.6602   74.9850 H   0  0  0  0  0  0  0  0  0  0  0  0
   -0.0130   53.5793   73.5768 H   0  0  0  0  0  0  0  0  0  0  0  0
    1.6838   52.9899   73.5768 H   0  0  0  0  0  0  0  0  0  0  0  0
    0.0139   63.8508   69.8474 H   0  0  0  0  0  0  0  0  0  0  0  0
   -0.0105   65.4319   70.7723 H   0  0  0  0  0  0  0  0  0  0  0  0
    2.0663   64.7235   69.2539 H   0  0  0  0  0  0  0  0  0  0  0  0
    2.2414   65.6215   70.8265 H   0  0  0  0  0  0  0  0  0  0  0  0
    3.1693   57.0916   72.0199 H   0  0  0  0  0  0  0  0  0  0  0  0
    2.2726   57.3905   70.4924 H   0  0  0  0  0  0  0  0  0  0  0  0
    4.0689   57.3819   70.4924 H   0  0  0  0  0  0  0  0  0  0  0  0
    4.2969   59.9388   69.7134 H   0  0  0  0  0  0  0  0  0  0  0  0
    2.5723   59.9444   69.4337 H   0  0  0  0  0  0  0  0  0  0  0  0
    3.2427   63.7382   71.7909 H   0  0  0  0  0  0  0  0  0  0  0  0
    3.9839   58.7738   75.6557 H   0  0  0  0  0  0  0  0  0  0  0  0
    4.3141   57.7013   74.2531 H   0  0  0  0  0  0  0  0  0  0  0  0
    4.9205   59.3921   74.2531 H   0  0  0  0  0  0  0  0  0  0  0  0
    2.3545   59.9890   74.5210 H   0  0  0  0  0  0  0  0  0  0  0  0
    2.1329   58.3293   73.8220 H   0  0  0  0  0  0  0  0  0  0  0  0
  2  1  2  0
  3  2  1  0
  4  3  2  0
  5  4  1  0
  6  1  1  0
  6  5  2  0
  7  4  1  0
  8  7  2  0
  9  7  2  0
 10  7  1  0
 11 10  1  0
 12 11  2  0
 13 11  1  0
 14 13  1  0
 15 14  1  0
 16 15  1  0
 17 16  1  0
 18 17  1  0
 19 18  1  0
 19 14  1  0
 20 17  1  0
 21  1  1  0
 22 21  1  0
 24 23  2  0
 25 24  1  0
 26 24  1  0
 27 26  1  0
 28 27  1  0
 28 23  1  0
 29 28  2  0
 30 27  1  0
 31 30  2  0
 32 30  1  0
 32 22  1  0
 34 23  1  0
 34 33  1  0
  2 35  1  0
  3 36  1  0
  5 37  1  0
  6 38  1  0
 10 39  1  0
 13 40  1  0
 14 41  1  6
 15 42  1  0
 15 43  1  0
 16 44  1  0
 16 45  1  0
 17 46  1  1
 18 47  1  0
 18 48  1  0
 19 49  1  0
 19 50  1  0
 20 51  1  0
 20 52  1  0
 20 53  1  0
 21 54  1  0
 21 55  1  0
 22 56  1  0
 22 57  1  0
 25 58  1  0
 25 59  1  0
 25 60  1  0
 26 61  1  0
 26 62  1  0
 32 63  1  0
 33 64  1  0
 33 65  1  0
 33 66  1  0
 34 67  1  0
 34 68  1  0
M  END
>  <score>  (8) 
-9.389

$$$$
=
     RDKit          3D

 68 70  0  0  0  0  0  0  0  0999 V2000
    1.5630   56.8760   73.5120 C   0  0  0  0  0  0  0  0  0  0  0  0
    0.2320   57.3100   73.6170 C   0  0  0  0  0  0  0  0  0  0  0  0
   -0.7410   56.4860   74.1830 C   0  0  0  0  0  0  0  0  0  0  0  0
   -0.3800   55.2160   74.6380 C   0  0  0  0  0  0  0  0  0  0  0  0
    0.9320   54.7530   74.5050 C   0  0  0  0  0  0  0  0  0  0  0  0
    1.8980   55.5810   73.9320 C   0  0  0  0  0  0  0  0  0  0  0  0
   -1.5880   54.2100   75.4790 S   0  0  0  0  0  6  0  0  0  0  0  0
   -1.6720   52.9690   74.7410 O   0  0  0  0  0  0  0  0  0  0  0  0
   -1.2560   54.2510   76.8860 O   0  0  0  0  0  0  0  0  0  0  0  0
   -2.9590   55.1170   75.2090 N   0  0  0  0  0  0  0  0  0  0  0  0
   -3.3830   56.1010   76.0870 C   0  0  0  0  0  0  0  0  0  0  0  0
   -2.7940   56.3960   77.1120 O   0  0  0  0  0  0  0  0  0  0  0  0
   -4.5310   56.7070   75.6590 N   0  0  0  0  0  0  0  0  0  0  0  0
   -5.0880   57.8630   76.3550 C   0  0  2  0  0  0  0  0  0  0  0  0
   -6.4580   58.2340   75.7750 C   0  0  0  0  0  0  0  0  0  0  0  0
   -6.3670   58.8850   74.3930 C   0  0  0  0  0  0  0  0  0  0  0  0
   -5.3980   60.0730   74.3470 C   0  0  2  0  0  0  0  0  0  0  0  0
   -4.0290   59.6870   74.9250 C   0  0  0  0  0  0  0  0  0  0  0  0
   -4.1210   59.0540   76.3140 C   0  0  0  0  0  0  0  0  0  0  0  0
   -5.9800   61.3050   75.0470 C   0  0  0  0  0  0  0  0  0  0  0  0
    2.6360   57.8470   73.0650 C   0  0  0  0  0  0  0  0  0  0  0  0
    3.3250   58.6020   74.2200 C   0  0  0  0  0  0  0  0  0  0  0  0
    3.4900   63.0360   70.9330 C   0  0  0  0  0  0  0  0  0  0  0  0
    2.3090   63.5250   71.3410 C   0  0  0  0  0  0  0  0  0  0  0  0
    1.4640   64.5630   70.6880 C   0  0  0  0  0  0  0  0  0  0  0  0
    1.8310   62.8810   72.6010 C   0  0  0  0  0  0  0  0  0  0  0  0
    2.8820   61.9450   72.8890 N   0  0  0  0  0  0  0  0  0  0  0  0
    3.8690   61.9920   71.9100 C   0  0  0  0  0  0  0  0  0  0  0  0
    4.8880   61.3210   71.8420 O   0  0  0  0  0  0  0  0  0  0  0  0
    2.6460   60.9210   73.7900 C   0  0  0  0  0  0  0  0  0  0  0  0
    1.5890   60.8220   74.4120 O   0  0  0  0  0  0  0  0  0  0  0  0
    3.6430   59.9770   73.8740 N   0  0  0  0  0  0  0  0  0  0  0  0
    3.7210   62.6870   68.4760 C   0  0  0  0  0  0  0  0  0  0  0  0
    4.3110   63.3230   69.7260 C   0  0  0  0  0  0  0  0  0  0  0  0
   -0.0462   58.3088   73.2496 H   0  0  0  0  0  0  0  0  0  0  0  0
   -1.7813   56.8328   74.2700 H   0  0  0  0  0  0  0  0  0  0  0  0
    1.2010   53.7435   74.8494 H   0  0  0  0  0  0  0  0  0  0  0  0
    2.9282   55.2156   73.8091 H   0  0  0  0  0  0  0  0  0  0  0  0
   -3.5116   54.9396   74.3581 H   0  0  0  0  0  0  0  0  0  0  0  0
   -5.0139   56.3397   74.8267 H   0  0  0  0  0  0  0  0  0  0  0  0
   -5.2296   57.5920   77.4117 H   0  0  0  0  0  0  0  0  0  0  0  0
   -7.0628   57.3189   75.6921 H   0  0  0  0  0  0  0  0  0  0  0  0
   -6.9146   58.9685   76.4548 H   0  0  0  0  0  0  0  0  0  0  0  0
   -6.0261   58.1277   73.6717 H   0  0  0  0  0  0  0  0  0  0  0  0
   -7.3676   59.2698   74.1465 H   0  0  0  0  0  0  0  0  0  0  0  0
   -5.2512   60.3441   73.2911 H   0  0  0  0  0  0  0  0  0  0  0  0
   -3.5515   58.9677   74.2434 H   0  0  0  0  0  0  0  0  0  0  0  0
   -3.4424   60.6122   75.0245 H   0  0  0  0  0  0  0  0  0  0  0  0
   -3.1203   58.7061   76.6100 H   0  0  0  0  0  0  0  0  0  0  0  0
   -4.5043   59.8193   77.0050 H   0  0  0  0  0  0  0  0  0  0  0  0
   -5.9169   61.1714   76.1370 H   0  0  0  0  0  0  0  0  0  0  0  0
   -5.4084   62.1978   74.7533 H   0  0  0  0  0  0  0  0  0  0  0  0
   -7.0326   61.4305   74.7533 H   0  0  0  0  0  0  0  0  0  0  0  0
    3.4037   57.2835   72.5145 H   0  0  0  0  0  0  0  0  0  0  0  0
    2.1374   58.6057   72.4438 H   0  0  0  0  0  0  0  0  0  0  0  0
    2.6531   58.6037   75.0909 H   0  0  0  0  0  0  0  0  0  0  0  0
    4.2708   58.0853   74.4402 H   0  0  0  0  0  0  0  0  0  0  0  0
    0.9689   65.1712   71.4593 H   0  0  0  0  0  0  0  0  0  0  0  0
    2.0960   65.2093   70.0612 H   0  0  0  0  0  0  0  0  0  0  0  0
    0.7030   64.0752   70.0612 H   0  0  0  0  0  0  0  0  0  0  0  0
    1.7237   63.6195   73.4091 H   0  0  0  0  0  0  0  0  0  0  0  0
    0.8402   62.4127   72.5059 H   0  0  0  0  0  0  0  0  0  0  0  0
    4.6201   60.2462   73.6907 H   0  0  0  0  0  0  0  0  0  0  0  0
    2.9994   61.9091   68.7661 H   0  0  0  0  0  0  0  0  0  0  0  0
    3.2101   63.4569   67.8791 H   0  0  0  0  0  0  0  0  0  0  0  0
    4.5270   62.2352   67.8791 H   0  0  0  0  0  0  0  0  0  0  0  0
    4.3620   64.4122   69.5810 H   0  0  0  0  0  0  0  0  0  0  0  0
    5.3128   62.8976   69.8853 H   0  0  0  0  0  0  0  0  0  0  0  0
  2  1  2  0
  3  2  1  0
  4  3  2  0
  5  4  1  0
  6  1  1  0
  6  5  2  0
  7  4  1  0
  8  7  2  0
  9  7  2  0
 10  7  1  0
 11 10  1  0
 12 11  2  0
 13 11  1  0
 14 13  1  0
 15 14  1  0
 16 15  1  0
 17 16  1  0
 18 17  1  0
 19 18  1  0
 19 14  1  0
 20 17  1  0
 21  1  1  0
 22 21  1  0
 24 23  2  0
 25 24  1  0
 26 24  1  0
 27 26  1  0
 28 27  1  0
 28 23  1  0
 29 28  2  0
 30 27  1  0
 31 30  2  0
 32 30  1  0
 32 22  1  0
 34 23  1  0
 34 33  1  0
  2 35  1  0
  3 36  1  0
  5 37  1  0
  6 38  1  0
 10 39  1  0
 13 40  1  0
 14 41  1  1
 15 42  1  0
 15 43  1  0
 16 44  1  0
 16 45  1  0
 17 46  1  6
 18 47  1  0
 18 48  1  0
 19 49  1  0
 19 50  1  0
 20 51  1  0
 20 52  1  0
 20 53  1  0
 21 54  1  0
 21 55  1  0
 22 56  1  0
 22 57  1  0
 25 58  1  0
 25 59  1  0
 25 60  1  0
 26 61  1  0
 26 62  1  0
 32 63  1  0
 33 64  1  0
 33 65  1  0
 33 66  1  0
 34 67  1  0
 34 68  1  0
M  END
>  <score>  (9) 
-8.577

$$$$
