=
     RDKit          3D

 54 57  0  0  0  0  0  0  0  0999 V2000
    2.7020   67.2320   64.0800 C   0  0  1  0  0  0  0  0  0  0  0  0
    4.0700   67.3240   63.3740 C   0  0  0  0  0  0  0  0  0  0  0  0
    4.5220   68.7690   63.2800 N   0  0  2  0  0  4  0  0  0  0  0  0
    5.6310   68.9930   62.3070 C   0  0  0  0  0  0  0  0  0  0  0  0
    4.6880   69.4270   64.6470 C   0  0  1  0  0  0  0  0  0  0  0  0
    3.5880   68.9790   65.6400 C   0  0  0  0  0  0  0  0  0  0  0  0
    2.6900   68.0100   65.3720 C   0  0  0  0  0  0  0  0  0  0  0  0
    3.6660   69.6080   66.9750 C   0  0  0  0  0  0  0  0  0  0  0  0
    2.6430   69.8560   67.8910 C   0  0  0  0  0  0  0  0  0  0  0  0
    2.9360   70.4430   69.1290 C   0  0  0  0  0  0  0  0  0  0  0  0
    4.2490   70.7930   69.4940 C   0  0  0  0  0  0  0  0  0  0  0  0
    5.2650   70.5360   68.5660 C   0  0  0  0  0  0  0  0  0  0  0  0
    4.9770   69.9620   67.3390 C   0  0  0  0  0  0  0  0  0  0  0  0
    6.1800   69.8270   66.6040 C   0  0  0  0  0  0  0  0  0  0  0  0
    6.1360   69.2500   65.2280 C   0  0  0  0  0  0  0  0  0  0  0  0
    7.1940   70.3120   67.3940 C   0  0  0  0  0  0  0  0  0  0  0  0
    6.6310   70.7380   68.5800 N   0  0  0  0  0  0  0  0  0  0  0  0
    7.3690   71.3160   69.6840 C   0  0  0  0  0  0  0  0  0  0  0  0
    0.4300   68.0900   63.7570 N   0  0  0  0  0  0  0  0  0  0  0  0
    1.6390   67.8270   63.1620 C   0  0  0  0  0  0  0  0  0  0  0  0
    1.8990   68.0810   61.9860 O   0  0  0  0  0  0  0  0  0  0  0  0
   -0.6540   68.7600   63.0330 C   0  0  1  0  0  0  0  0  0  0  0  0
   -1.4880   68.7800   65.4410 C   0  0  0  0  0  0  0  0  0  0  0  0
   -1.8090   69.1090   63.9880 C   0  0  0  0  0  0  0  0  0  0  0  0
   -0.1320   70.0180   62.3090 C   0  0  0  0  0  0  0  0  0  0  0  0
    0.0420   69.7900   60.9170 O   0  0  0  0  0  0  0  0  0  0  0  0
    2.5022   66.1734   64.3025 H   0  0  0  0  0  0  0  0  0  0  0  0
    4.8125   66.7488   63.9466 H   0  0  0  0  0  0  0  0  0  0  0  0
    3.9747   66.9137   62.3578 H   0  0  0  0  0  0  0  0  0  0  0  0
    3.7442   69.2903   62.8509 H   0  0  0  0  0  0  0  0  0  0  0  0
    6.5663   69.1819   62.8542 H   0  0  0  0  0  0  0  0  0  0  0  0
    5.7499   68.1007   61.6748 H   0  0  0  0  0  0  0  0  0  0  0  0
    5.3943   69.8615   61.6748 H   0  0  0  0  0  0  0  0  0  0  0  0
    4.5545   70.5085   64.4968 H   0  0  0  0  0  0  0  0  0  0  0  0
    1.9204   67.7783   66.1230 H   0  0  0  0  0  0  0  0  0  0  0  0
    1.6053   69.5903   67.6408 H   0  0  0  0  0  0  0  0  0  0  0  0
    2.1157   70.6358   69.8361 H   0  0  0  0  0  0  0  0  0  0  0  0
    4.4684   71.2505   70.4700 H   0  0  0  0  0  0  0  0  0  0  0  0
    6.3893   68.1803   65.2681 H   0  0  0  0  0  0  0  0  0  0  0  0
    6.8615   69.7682   64.5837 H   0  0  0  0  0  0  0  0  0  0  0  0
    8.2609   70.3533   67.1294 H   0  0  0  0  0  0  0  0  0  0  0  0
    6.9335   70.9749   70.6348 H   0  0  0  0  0  0  0  0  0  0  0  0
    8.4208   70.9990   69.6279 H   0  0  0  0  0  0  0  0  0  0  0  0
    7.3132   72.4132   69.6279 H   0  0  0  0  0  0  0  0  0  0  0  0
    0.2810   67.8094   64.7368 H   0  0  0  0  0  0  0  0  0  0  0  0
   -1.0410   68.0682   62.2703 H   0  0  0  0  0  0  0  0  0  0  0  0
   -2.1013   69.4086   66.1034 H   0  0  0  0  0  0  0  0  0  0  0  0
   -1.7084   67.7198   65.6342 H   0  0  0  0  0  0  0  0  0  0  0  0
   -0.4227   68.9742   65.6342 H   0  0  0  0  0  0  0  0  0  0  0  0
   -2.0185   70.1859   63.9087 H   0  0  0  0  0  0  0  0  0  0  0  0
   -2.6790   68.5036   63.6938 H   0  0  0  0  0  0  0  0  0  0  0  0
   -0.8549   70.8353   62.4486 H   0  0  0  0  0  0  0  0  0  0  0  0
    0.8465   70.2791   62.7383 H   0  0  0  0  0  0  0  0  0  0  0  0
    0.6370   69.0103   60.7822 H   0  0  0  0  0  0  0  0  0  0  0  0
  2  1  1  0
  3  2  1  0
  4  3  1  0
  5  3  1  0
  6  5  1  0
  7  1  1  0
  7  6  2  0
  8  6  1  0
  9  8  2  0
 10  9  1  0
 11 10  2  0
 12 11  1  0
 13 12  2  0
 13  8  1  0
 14 13  1  0
 15  5  1  0
 15 14  1  0
 16 14  2  0
 17 12  1  0
 17 16  1  0
 18 17  1  0
 20 19  1  0
 20  1  1  0
 21 20  2  0
 22 19  1  0
 24 22  1  0
 24 23  1  0
 25 22  1  0
 26 25  1  0
  1 27  1  1
  2 28  1  0
  2 29  1  0
  3 30  1  6
  4 31  1  0
  4 32  1  0
  4 33  1  0
  5 34  1  6
  7 35  1  0
  9 36  1  0
 10 37  1  0
 11 38  1  0
 15 39  1  0
 15 40  1  0
 16 41  1  0
 18 42  1  0
 18 43  1  0
 18 44  1  0
 19 45  1  0
 22 46  1  6
 23 47  1  0
 23 48  1  0
 23 49  1  0
 24 50  1  0
 24 51  1  0
 25 52  1  0
 25 53  1  0
 26 54  1  0
M  CHG  1   3   1
M  END
>  <score>  (1) 
-9.903

$$$$
=
     RDKit          3D

 54 57  0  0  0  0  0  0  0  0999 V2000
    1.7180   67.0600   65.4990 C   0  0  1  0  0  0  0  0  0  0  0  0
    2.6890   67.1730   64.3060 C   0  0  0  0  0  0  0  0  0  0  0  0
    2.9710   68.6290   63.9880 N   0  0  2  0  0  4  0  0  0  0  0  0
    3.5910   68.8460   62.6480 C   0  0  0  0  0  0  0  0  0  0  0  0
    3.6170   69.3740   65.1520 C   0  0  1  0  0  0  0  0  0  0  0  0
    3.0290   68.9350   66.5150 C   0  0  0  0  0  0  0  0  0  0  0  0
    2.1640   67.9120   66.6610 C   0  0  0  0  0  0  0  0  0  0  0  0
    3.5840   69.6460   67.6870 C   0  0  0  0  0  0  0  0  0  0  0  0
    2.9880   69.9010   68.9230 C   0  0  0  0  0  0  0  0  0  0  0  0
    3.7060   70.5740   69.9220 C   0  0  0  0  0  0  0  0  0  0  0  0
    5.0300   71.0050   69.7240 C   0  0  0  0  0  0  0  0  0  0  0  0
    5.6130   70.7410   68.4800 C   0  0  0  0  0  0  0  0  0  0  0  0
    4.9050   70.0820   67.4890 C   0  0  0  0  0  0  0  0  0  0  0  0
    5.7280   69.9580   66.3430 C   0  0  0  0  0  0  0  0  0  0  0  0
    5.1860   69.2990   65.1180 C   0  0  0  0  0  0  0  0  0  0  0  0
    6.9370   70.5360   66.6480 C   0  0  0  0  0  0  0  0  0  0  0  0
    6.8590   71.0060   67.9440 N   0  0  0  0  0  0  0  0  0  0  0  0
    7.9320   71.6820   68.6440 C   0  0  0  0  0  0  0  0  0  0  0  0
   -0.6210   67.5560   66.0330 N   0  0  0  0  0  0  0  0  0  0  0  0
    0.3430   67.5500   65.0560 C   0  0  0  0  0  0  0  0  0  0  0  0
    0.1600   67.9440   63.9040 O   0  0  0  0  0  0  0  0  0  0  0  0
   -1.9600   68.0980   65.7890 C   0  0  1  0  0  0  0  0  0  0  0  0
   -2.3000   66.7820   67.9450 C   0  0  0  0  0  0  0  0  0  0  0  0
   -2.9730   67.5140   66.7900 C   0  0  0  0  0  0  0  0  0  0  0  0
   -1.9440   69.6400   65.8500 C   0  0  0  0  0  0  0  0  0  0  0  0
   -1.4530   70.1130   67.0970 O   0  0  0  0  0  0  0  0  0  0  0  0
    1.6918   66.0084   65.8207 H   0  0  0  0  0  0  0  0  0  0  0  0
    3.6331   66.6680   64.5583 H   0  0  0  0  0  0  0  0  0  0  0  0
    2.2292   66.6989   63.4263 H   0  0  0  0  0  0  0  0  0  0  0  0
    2.0544   69.0869   63.8831 H   0  0  0  0  0  0  0  0  0  0  0  0
    4.6223   69.2069   62.7753 H   0  0  0  0  0  0  0  0  0  0  0  0
    3.6006   67.8978   62.0905 H   0  0  0  0  0  0  0  0  0  0  0  0
    3.0072   69.5932   62.0905 H   0  0  0  0  0  0  0  0  0  0  0  0
    3.3637   70.4372   65.0277 H   0  0  0  0  0  0  0  0  0  0  0  0
    1.7691   67.6904   67.6635 H   0  0  0  0  0  0  0  0  0  0  0  0
    1.9551   69.5741   69.1135 H   0  0  0  0  0  0  0  0  0  0  0  0
    3.2194   70.7706   70.8888 H   0  0  0  0  0  0  0  0  0  0  0  0
    5.5852   71.5290   70.5160 H   0  0  0  0  0  0  0  0  0  0  0  0
    5.5050   68.2466   65.0930 H   0  0  0  0  0  0  0  0  0  0  0  0
    5.5643   69.8109   64.2209 H   0  0  0  0  0  0  0  0  0  0  0  0
    7.8084   70.6106   65.9809 H   0  0  0  0  0  0  0  0  0  0  0  0
    7.7796   71.5860   69.7291 H   0  0  0  0  0  0  0  0  0  0  0  0
    8.8944   71.2268   68.3672 H   0  0  0  0  0  0  0  0  0  0  0  0
    7.9369   72.7466   68.3672 H   0  0  0  0  0  0  0  0  0  0  0  0
   -0.3973   67.1697   66.9612 H   0  0  0  0  0  0  0  0  0  0  0  0
   -2.2746   67.8029   64.7771 H   0  0  0  0  0  0  0  0  0  0  0  0
   -2.6700   67.1845   68.8995 H   0  0  0  0  0  0  0  0  0  0  0  0
   -2.5333   65.7087   67.8846 H   0  0  0  0  0  0  0  0  0  0  0  0
   -1.2109   66.9245   67.8846 H   0  0  0  0  0  0  0  0  0  0  0  0
   -3.5783   68.3364   67.1990 H   0  0  0  0  0  0  0  0  0  0  0  0
   -3.5931   66.7841   66.2490 H   0  0  0  0  0  0  0  0  0  0  0  0
   -1.2986   70.0217   65.0451 H   0  0  0  0  0  0  0  0  0  0  0  0
   -2.9773   69.9980   65.7310 H   0  0  0  0  0  0  0  0  0  0  0  0
   -1.9288   69.6546   67.8343 H   0  0  0  0  0  0  0  0  0  0  0  0
  2  1  1  0
  3  2  1  0
  4  3  1  0
  5  3  1  0
  6  5  1  0
  7  1  1  0
  7  6  2  0
  8  6  1  0
  9  8  2  0
 10  9  1  0
 11 10  2  0
 12 11  1  0
 13 12  2  0
 13  8  1  0
 14 13  1  0
 15  5  1  0
 15 14  1  0
 16 14  2  0
 17 12  1  0
 17 16  1  0
 18 17  1  0
 20 19  1  0
 20  1  1  0
 21 20  2  0
 22 19  1  0
 24 22  1  0
 24 23  1  0
 25 22  1  0
 26 25  1  0
  1 27  1  1
  2 28  1  0
  2 29  1  0
  3 30  1  6
  4 31  1  0
  4 32  1  0
  4 33  1  0
  5 34  1  6
  7 35  1  0
  9 36  1  0
 10 37  1  0
 11 38  1  0
 15 39  1  0
 15 40  1  0
 16 41  1  0
 18 42  1  0
 18 43  1  0
 18 44  1  0
 19 45  1  0
 22 46  1  6
 23 47  1  0
 23 48  1  0
 23 49  1  0
 24 50  1  0
 24 51  1  0
 25 52  1  0
 25 53  1  0
 26 54  1  0
M  CHG  1   3   1
M  END
>  <score>  (2) 
-8.292

$$$$
=
     RDKit          3D

 54 57  0  0  0  0  0  0  0  0999 V2000
    2.2850   62.1950   70.0760 C   0  0  1  0  0  0  0  0  0  0  0  0
    3.6890   61.5900   70.2770 C   0  0  0  0  0  0  0  0  0  0  0  0
    4.0720   61.6150   71.7430 N   0  0  2  0  0  4  0  0  0  0  0  0
    5.5280   61.3980   71.9920 C   0  0  0  0  0  0  0  0  0  0  0  0
    3.1160   60.8100   72.6190 C   0  0  1  0  0  0  0  0  0  0  0  0
    1.6470   60.9590   72.1570 C   0  0  0  0  0  0  0  0  0  0  0  0
    1.2800   61.5970   71.0280 C   0  0  0  0  0  0  0  0  0  0  0  0
    0.6600   60.2330   72.9850 C   0  0  0  0  0  0  0  0  0  0  0  0
   -0.6870   60.5230   73.2030 C   0  0  0  0  0  0  0  0  0  0  0  0
   -1.4650   59.6820   74.0100 C   0  0  0  0  0  0  0  0  0  0  0  0
   -0.9300   58.5300   74.6160 C   0  0  0  0  0  0  0  0  0  0  0  0
    0.4230   58.2520   74.3870 C   0  0  0  0  0  0  0  0  0  0  0  0
    1.1940   59.0850   73.5950 C   0  0  0  0  0  0  0  0  0  0  0  0
    2.5150   58.5740   73.5430 C   0  0  0  0  0  0  0  0  0  0  0  0
    3.5550   59.3080   72.7650 C   0  0  0  0  0  0  0  0  0  0  0  0
    2.5330   57.4250   74.2980 C   0  0  0  0  0  0  0  0  0  0  0  0
    1.2630   57.2370   74.8040 N   0  0  0  0  0  0  0  0  0  0  0  0
    0.8660   56.1330   75.6520 C   0  0  0  0  0  0  0  0  0  0  0  0
    1.1670   64.3690   70.2410 N   0  0  0  0  0  0  0  0  0  0  0  0
    2.3580   63.6950   70.3480 C   0  0  0  0  0  0  0  0  0  0  0  0
    3.4210   64.2200   70.6800 O   0  0  0  0  0  0  0  0  0  0  0  0
    1.0560   65.7920   70.5760 C   0  0  1  0  0  0  0  0  0  0  0  0
   -0.3240   66.7800   68.6750 C   0  0  0  0  0  0  0  0  0  0  0  0
    1.0600   66.6520   69.3000 C   0  0  0  0  0  0  0  0  0  0  0  0
   -0.2060   66.0570   71.4220 C   0  0  0  0  0  0  0  0  0  0  0  0
   -0.2110   65.2860   72.6160 O   0  0  0  0  0  0  0  0  0  0  0  0
    1.9649   61.9824   69.0453 H   0  0  0  0  0  0  0  0  0  0  0  0
    3.6894   60.5494   69.9203 H   0  0  0  0  0  0  0  0  0  0  0  0
    4.4182   62.1857   69.7083 H   0  0  0  0  0  0  0  0  0  0  0  0
    3.9368   62.5850   72.0619 H   0  0  0  0  0  0  0  0  0  0  0  0
    5.7145   61.3702   73.0757 H   0  0  0  0  0  0  0  0  0  0  0  0
    5.8387   60.4436   71.5419 H   0  0  0  0  0  0  0  0  0  0  0  0
    6.1035   62.2203   71.5419 H   0  0  0  0  0  0  0  0  0  0  0  0
    3.1728   61.2403   73.6297 H   0  0  0  0  0  0  0  0  0  0  0  0
    0.2091   61.6846   70.7926 H   0  0  0  0  0  0  0  0  0  0  0  0
   -1.1390   61.4130   72.7408 H   0  0  0  0  0  0  0  0  0  0  0  0
   -2.5241   59.9294   74.1745 H   0  0  0  0  0  0  0  0  0  0  0  0
   -1.5502   57.8741   75.2446 H   0  0  0  0  0  0  0  0  0  0  0  0
    3.6585   58.8550   71.7680 H   0  0  0  0  0  0  0  0  0  0  0  0
    4.5210   59.2512   73.2881 H   0  0  0  0  0  0  0  0  0  0  0  0
    3.4027   56.7733   74.4680 H   0  0  0  0  0  0  0  0  0  0  0  0
    0.9710   56.4251   76.7073 H   0  0  0  0  0  0  0  0  0  0  0  0
   -0.1825   55.8714   75.4465 H   0  0  0  0  0  0  0  0  0  0  0  0
    1.5078   55.2636   75.4465 H   0  0  0  0  0  0  0  0  0  0  0  0
    0.3306   63.8625   69.9173 H   0  0  0  0  0  0  0  0  0  0  0  0
    1.9315   66.0758   71.1785 H   0  0  0  0  0  0  0  0  0  0  0  0
   -1.0805   66.8500   69.4705 H   0  0  0  0  0  0  0  0  0  0  0  0
   -0.3625   67.6855   68.0517 H   0  0  0  0  0  0  0  0  0  0  0  0
   -0.5279   65.8969   68.0517 H   0  0  0  0  0  0  0  0  0  0  0  0
    1.4261   67.6577   69.5541 H   0  0  0  0  0  0  0  0  0  0  0  0
    1.7123   66.1561   68.5661 H   0  0  0  0  0  0  0  0  0  0  0  0
   -0.2398   67.1241   71.6868 H   0  0  0  0  0  0  0  0  0  0  0  0
   -1.0846   65.7703   70.8255 H   0  0  0  0  0  0  0  0  0  0  0  0
   -0.2071   65.8911   73.3996 H   0  0  0  0  0  0  0  0  0  0  0  0
  2  1  1  0
  3  2  1  0
  4  3  1  0
  5  3  1  0
  6  5  1  0
  7  1  1  0
  7  6  2  0
  8  6  1  0
  9  8  2  0
 10  9  1  0
 11 10  2  0
 12 11  1  0
 13 12  2  0
 13  8  1  0
 14 13  1  0
 15  5  1  0
 15 14  1  0
 16 14  2  0
 17 12  1  0
 17 16  1  0
 18 17  1  0
 20 19  1  0
 20  1  1  0
 21 20  2  0
 22 19  1  0
 24 22  1  0
 24 23  1  0
 25 22  1  0
 26 25  1  0
  1 27  1  6
  2 28  1  0
  2 29  1  0
  3 30  1  1
  4 31  1  0
  4 32  1  0
  4 33  1  0
  5 34  1  1
  7 35  1  0
  9 36  1  0
 10 37  1  0
 11 38  1  0
 15 39  1  0
 15 40  1  0
 16 41  1  0
 18 42  1  0
 18 43  1  0
 18 44  1  0
 19 45  1  0
 22 46  1  1
 23 47  1  0
 23 48  1  0
 23 49  1  0
 24 50  1  0
 24 51  1  0
 25 52  1  0
 25 53  1  0
 26 54  1  0
M  CHG  1   3   1
M  END
>  <score>  (3) 
-7.925

$$$$
=
     RDKit          3D

 54 57  0  0  0  0  0  0  0  0999 V2000
    0.7100   58.4840   73.2260 C   0  0  1  0  0  0  0  0  0  0  0  0
   -0.2940   59.2960   74.0690 C   0  0  0  0  0  0  0  0  0  0  0  0
    0.3940   60.4830   74.7140 N   0  0  2  0  0  4  0  0  0  0  0  0
   -0.3880   61.1060   75.8230 C   0  0  0  0  0  0  0  0  0  0  0  0
    0.9920   61.4470   73.6940 C   0  0  1  0  0  0  0  0  0  0  0  0
    1.6130   60.6990   72.4890 C   0  0  0  0  0  0  0  0  0  0  0  0
    1.5000   59.3700   72.2970 C   0  0  0  0  0  0  0  0  0  0  0  0
    2.2450   61.5710   71.4770 C   0  0  0  0  0  0  0  0  0  0  0  0
    3.2900   61.2840   70.5980 C   0  0  0  0  0  0  0  0  0  0  0  0
    3.7280   62.2540   69.6860 C   0  0  0  0  0  0  0  0  0  0  0  0
    3.1380   63.5290   69.6170 C   0  0  0  0  0  0  0  0  0  0  0  0
    2.0900   63.8020   70.5040 C   0  0  0  0  0  0  0  0  0  0  0  0
    1.6610   62.8480   71.4110 C   0  0  0  0  0  0  0  0  0  0  0  0
    0.6040   63.3920   72.1830 C   0  0  0  0  0  0  0  0  0  0  0  0
   -0.0220   62.5630   73.2540 C   0  0  0  0  0  0  0  0  0  0  0  0
    0.3930   64.6730   71.7320 C   0  0  0  0  0  0  0  0  0  0  0  0
    1.2960   64.9130   70.7160 N   0  0  0  0  0  0  0  0  0  0  0  0
    1.3960   66.1530   69.9750 C   0  0  0  0  0  0  0  0  0  0  0  0
    1.4110   56.4810   74.4500 N   0  0  0  0  0  0  0  0  0  0  0  0
    1.6920   57.7950   74.1690 C   0  0  0  0  0  0  0  0  0  0  0  0
    2.6790   58.3960   74.5930 O   0  0  0  0  0  0  0  0  0  0  0  0
    2.3180   55.6550   75.2530 C   0  0  1  0  0  0  0  0  0  0  0  0
    0.4450   55.5470   76.9780 C   0  0  0  0  0  0  0  0  0  0  0  0
    1.9400   55.7250   76.7430 C   0  0  0  0  0  0  0  0  0  0  0  0
    2.3210   54.1980   74.7480 C   0  0  0  0  0  0  0  0  0  0  0  0
    2.6890   54.1160   73.3780 O   0  0  0  0  0  0  0  0  0  0  0  0
    0.1437   57.7574   72.6249 H   0  0  0  0  0  0  0  0  0  0  0  0
   -1.1047   59.6566   73.4188 H   0  0  0  0  0  0  0  0  0  0  0  0
   -0.7020   58.6482   74.8589 H   0  0  0  0  0  0  0  0  0  0  0  0
    1.2169   60.1089   75.2078 H   0  0  0  0  0  0  0  0  0  0  0  0
    0.0224   60.7790   76.7898 H   0  0  0  0  0  0  0  0  0  0  0  0
   -0.3216   62.2014   75.7481 H   0  0  0  0  0  0  0  0  0  0  0  0
   -1.4409   60.7965   75.7481 H   0  0  0  0  0  0  0  0  0  0  0  0
    1.8167   61.9712   74.1991 H   0  0  0  0  0  0  0  0  0  0  0  0
    2.0026   58.9151   71.4307 H   0  0  0  0  0  0  0  0  0  0  0  0
    3.7708   60.2949   70.6209 H   0  0  0  0  0  0  0  0  0  0  0  0
    4.5568   62.0112   69.0047 H   0  0  0  0  0  0  0  0  0  0  0  0
    3.4864   64.2818   68.8946 H   0  0  0  0  0  0  0  0  0  0  0  0
   -0.9407   62.0960   72.8695 H   0  0  0  0  0  0  0  0  0  0  0  0
   -0.2739   63.1977   74.1164 H   0  0  0  0  0  0  0  0  0  0  0  0
   -0.3596   65.3795   72.1121 H   0  0  0  0  0  0  0  0  0  0  0  0
    1.4640   66.9960   70.6784 H   0  0  0  0  0  0  0  0  0  0  0  0
    2.2952   66.1303   69.3419 H   0  0  0  0  0  0  0  0  0  0  0  0
    0.5048   66.2747   69.3419 H   0  0  0  0  0  0  0  0  0  0  0  0
    0.5412   56.0649   74.0877 H   0  0  0  0  0  0  0  0  0  0  0  0
    3.3378   56.0524   75.1429 H   0  0  0  0  0  0  0  0  0  0  0  0
    0.2441   55.5231   78.0592 H   0  0  0  0  0  0  0  0  0  0  0  0
   -0.1003   56.3866   76.5222 H   0  0  0  0  0  0  0  0  0  0  0  0
    0.1120   54.6029   76.5222 H   0  0  0  0  0  0  0  0  0  0  0  0
    2.4781   54.9303   77.2805 H   0  0  0  0  0  0  0  0  0  0  0  0
    2.2181   56.7239   77.1104 H   0  0  0  0  0  0  0  0  0  0  0  0
    3.0382   53.6156   75.3450 H   0  0  0  0  0  0  0  0  0  0  0  0
    1.3021   53.7971   74.8533 H   0  0  0  0  0  0  0  0  0  0  0  0
    3.6528   53.9012   73.3075 H   0  0  0  0  0  0  0  0  0  0  0  0
  2  1  1  0
  3  2  1  0
  4  3  1  0
  5  3  1  0
  6  5  1  0
  7  1  1  0
  7  6  2  0
  8  6  1  0
  9  8  2  0
 10  9  1  0
 11 10  2  0
 12 11  1  0
 13 12  2  0
 13  8  1  0
 14 13  1  0
 15  5  1  0
 15 14  1  0
 16 14  2  0
 17 12  1  0
 17 16  1  0
 18 17  1  0
 20 19  1  0
 20  1  1  0
 21 20  2  0
 22 19  1  0
 24 22  1  0
 24 23  1  0
 25 22  1  0
 26 25  1  0
  1 27  1  6
  2 28  1  0
  2 29  1  0
  3 30  1  1
  4 31  1  0
  4 32  1  0
  4 33  1  0
  5 34  1  1
  7 35  1  0
  9 36  1  0
 10 37  1  0
 11 38  1  0
 15 39  1  0
 15 40  1  0
 16 41  1  0
 18 42  1  0
 18 43  1  0
 18 44  1  0
 19 45  1  0
 22 46  1  1
 23 47  1  0
 23 48  1  0
 23 49  1  0
 24 50  1  0
 24 51  1  0
 25 52  1  0
 25 53  1  0
 26 54  1  0
M  CHG  1   3   1
M  END
>  <score>  (4) 
-7.659

$$$$
=
     RDKit          3D

 54 57  0  0  0  0  0  0  0  0999 V2000
    1.6680   60.8530   73.4820 C   0  0  1  0  0  0  0  0  0  0  0  0
    0.3130   61.3120   74.0590 C   0  0  0  0  0  0  0  0  0  0  0  0
   -0.8250   60.5510   73.4080 N   0  0  2  0  0  4  0  0  0  0  0  0
   -2.1670   61.1680   73.6240 C   0  0  0  0  0  0  0  0  0  0  0  0
   -0.7370   59.0450   73.6380 C   0  0  1  0  0  0  0  0  0  0  0  0
    0.7240   58.5370   73.5780 C   0  0  0  0  0  0  0  0  0  0  0  0
    1.7940   59.3500   73.4880 C   0  0  0  0  0  0  0  0  0  0  0  0
    0.8800   57.0770   73.7560 C   0  0  0  0  0  0  0  0  0  0  0  0
    1.8840   56.2360   73.2750 C   0  0  0  0  0  0  0  0  0  0  0  0
    1.8620   54.8690   73.5840 C   0  0  0  0  0  0  0  0  0  0  0  0
    0.8510   54.3030   74.3810 C   0  0  0  0  0  0  0  0  0  0  0  0
   -0.1490   55.1600   74.8570 C   0  0  0  0  0  0  0  0  0  0  0  0
   -0.1330   56.5090   74.5480 C   0  0  0  0  0  0  0  0  0  0  0  0
   -1.2570   57.1300   75.1480 C   0  0  0  0  0  0  0  0  0  0  0  0
   -1.4830   58.5910   74.9440 C   0  0  0  0  0  0  0  0  0  0  0  0
   -1.9440   56.1520   75.8270 C   0  0  0  0  0  0  0  0  0  0  0  0
   -1.2650   54.9630   75.6460 N   0  0  0  0  0  0  0  0  0  0  0  0
   -1.6680   53.6900   76.2060 C   0  0  0  0  0  0  0  0  0  0  0  0
    2.9160   60.9660   71.3760 N   0  0  0  0  0  0  0  0  0  0  0  0
    1.7670   61.3280   72.0350 C   0  0  0  0  0  0  0  0  0  0  0  0
    0.8420   61.9540   71.5170 O   0  0  0  0  0  0  0  0  0  0  0  0
    3.1100   61.2560   69.9530 C   0  0  1  0  0  0  0  0  0  0  0  0
    4.8050   63.0590   70.5630 C   0  0  0  0  0  0  0  0  0  0  0  0
    3.5620   62.7130   69.7530 C   0  0  0  0  0  0  0  0  0  0  0  0
    4.1180   60.2700   69.3270 C   0  0  0  0  0  0  0  0  0  0  0  0
    3.6790   58.9240   69.4430 O   0  0  0  0  0  0  0  0  0  0  0  0
    2.4677   61.2777   74.1066 H   0  0  0  0  0  0  0  0  0  0  0  0
    0.2994   61.1264   75.1431 H   0  0  0  0  0  0  0  0  0  0  0  0
    0.1851   62.3857   73.8571 H   0  0  0  0  0  0  0  0  0  0  0  0
   -0.6978   60.6514   72.3908 H   0  0  0  0  0  0  0  0  0  0  0  0
   -2.3603   61.2569   74.7032 H   0  0  0  0  0  0  0  0  0  0  0  0
   -2.1896   62.1669   73.1640 H   0  0  0  0  0  0  0  0  0  0  0  0
   -2.9400   60.5349   73.1640 H   0  0  0  0  0  0  0  0  0  0  0  0
   -1.2710   58.5649   72.8047 H   0  0  0  0  0  0  0  0  0  0  0  0
    2.7959   58.9017   73.4163 H   0  0  0  0  0  0  0  0  0  0  0  0
    2.6933   56.6460   72.6529 H   0  0  0  0  0  0  0  0  0  0  0  0
    2.6588   54.2200   73.1916 H   0  0  0  0  0  0  0  0  0  0  0  0
    0.8459   53.2295   74.6210 H   0  0  0  0  0  0  0  0  0  0  0  0
   -1.0900   59.1492   75.8065 H   0  0  0  0  0  0  0  0  0  0  0  0
   -2.5602   58.7909   74.8460 H   0  0  0  0  0  0  0  0  0  0  0  0
   -2.8670   56.2911   76.4089 H   0  0  0  0  0  0  0  0  0  0  0  0
   -1.6490   53.7500   77.3042 H   0  0  0  0  0  0  0  0  0  0  0  0
   -2.6868   53.4475   75.8696 H   0  0  0  0  0  0  0  0  0  0  0  0
   -0.9743   52.9054   75.8696 H   0  0  0  0  0  0  0  0  0  0  0  0
    3.6601   60.4784   71.8950 H   0  0  0  0  0  0  0  0  0  0  0  0
    2.1467   61.1260   69.4381 H   0  0  0  0  0  0  0  0  0  0  0  0
    4.5729   62.9944   71.6363 H   0  0  0  0  0  0  0  0  0  0  0  0
    5.6106   62.3510   70.3188 H   0  0  0  0  0  0  0  0  0  0  0  0
    5.1289   64.0815   70.3188 H   0  0  0  0  0  0  0  0  0  0  0  0
    3.7817   62.8701   68.6867 H   0  0  0  0  0  0  0  0  0  0  0  0
    2.7468   63.3646   70.1005 H   0  0  0  0  0  0  0  0  0  0  0  0
    4.2405   60.5142   68.2615 H   0  0  0  0  0  0  0  0  0  0  0  0
    5.0718   60.3668   69.8663 H   0  0  0  0  0  0  0  0  0  0  0  0
    3.6007   58.6838   70.4002 H   0  0  0  0  0  0  0  0  0  0  0  0
  2  1  1  0
  3  2  1  0
  4  3  1  0
  5  3  1  0
  6  5  1  0
  7  1  1  0
  7  6  2  0
  8  6  1  0
  9  8  2  0
 10  9  1  0
 11 10  2  0
 12 11  1  0
 13 12  2  0
 13  8  1  0
 14 13  1  0
 15  5  1  0
 15 14  1  0
 16 14  2  0
 17 12  1  0
 17 16  1  0
 18 17  1  0
 20 19  1  0
 20  1  1  0
 21 20  2  0
 22 19  1  0
 24 22  1  0
 24 23  1  0
 25 22  1  0
 26 25  1  0
  1 27  1  1
  2 28  1  0
  2 29  1  0
  3 30  1  6
  4 31  1  0
  4 32  1  0
  4 33  1  0
  5 34  1  6
  7 35  1  0
  9 36  1  0
 10 37  1  0
 11 38  1  0
 15 39  1  0
 15 40  1  0
 16 41  1  0
 18 42  1  0
 18 43  1  0
 18 44  1  0
 19 45  1  0
 22 46  1  6
 23 47  1  0
 23 48  1  0
 23 49  1  0
 24 50  1  0
 24 51  1  0
 25 52  1  0
 25 53  1  0
 26 54  1  0
M  CHG  1   3   1
M  END
>  <score>  (5) 
-7.594

$$$$
=
     RDKit          3D

 54 57  0  0  0  0  0  0  0  0999 V2000
   -0.2480   63.5350   76.1550 C   0  0  1  0  0  0  0  0  0  0  0  0
   -0.0150   62.0590   76.5360 C   0  0  0  0  0  0  0  0  0  0  0  0
   -0.5750   61.1420   75.4670 N   0  0  2  0  0  4  0  0  0  0  0  0
   -0.7290   59.7230   75.9070 C   0  0  0  0  0  0  0  0  0  0  0  0
    0.0800   61.3520   74.1050 C   0  0  1  0  0  0  0  0  0  0  0  0
    0.3670   62.8470   73.8280 C   0  0  0  0  0  0  0  0  0  0  0  0
    0.1990   63.8220   74.7430 C   0  0  0  0  0  0  0  0  0  0  0  0
    0.9680   63.1280   72.5070 C   0  0  0  0  0  0  0  0  0  0  0  0
    0.8870   64.2870   71.7330 C   0  0  0  0  0  0  0  0  0  0  0  0
    1.5630   64.3610   70.5070 C   0  0  0  0  0  0  0  0  0  0  0  0
    2.3400   63.2940   70.0210 C   0  0  0  0  0  0  0  0  0  0  0  0
    2.4130   62.1400   70.8090 C   0  0  0  0  0  0  0  0  0  0  0  0
    1.7410   62.0610   72.0170 C   0  0  0  0  0  0  0  0  0  0  0  0
    1.9810   60.7890   72.5930 C   0  0  0  0  0  0  0  0  0  0  0  0
    1.3450   60.4440   73.8980 C   0  0  0  0  0  0  0  0  0  0  0  0
    2.8070   60.1060   71.7340 C   0  0  0  0  0  0  0  0  0  0  0  0
    3.0640   60.9310   70.6570 N   0  0  0  0  0  0  0  0  0  0  0  0
    3.8990   60.5790   69.5280 C   0  0  0  0  0  0  0  0  0  0  0  0
   -2.0680   65.0180   76.8560 N   0  0  0  0  0  0  0  0  0  0  0  0
   -1.7410   63.8330   76.2460 C   0  0  0  0  0  0  0  0  0  0  0  0
   -2.5640   63.0590   75.7560 O   0  0  0  0  0  0  0  0  0  0  0  0
   -3.4520   65.4930   76.9240 C   0  0  1  0  0  0  0  0  0  0  0  0
   -4.2460   67.5180   78.2510 C   0  0  0  0  0  0  0  0  0  0  0  0
   -3.7590   66.0760   78.3140 C   0  0  0  0  0  0  0  0  0  0  0  0
   -3.7300   66.5270   75.8140 C   0  0  0  0  0  0  0  0  0  0  0  0
   -2.5470   66.8700   75.1050 O   0  0  0  0  0  0  0  0  0  0  0  0
    0.3352   64.1621   76.8454 H   0  0  0  0  0  0  0  0  0  0  0  0
    1.0650   61.8777   76.6395 H   0  0  0  0  0  0  0  0  0  0  0  0
   -0.5264   61.8514   77.4875 H   0  0  0  0  0  0  0  0  0  0  0  0
   -1.5515   61.4331   75.3164 H   0  0  0  0  0  0  0  0  0  0  0  0
   -0.7338   59.6784   77.0061 H   0  0  0  0  0  0  0  0  0  0  0  0
   -1.6762   59.3197   75.5195 H   0  0  0  0  0  0  0  0  0  0  0  0
    0.1096   59.1259   75.5195 H   0  0  0  0  0  0  0  0  0  0  0  0
   -0.6497   61.0264   73.3489 H   0  0  0  0  0  0  0  0  0  0  0  0
    0.3947   64.8640   74.4499 H   0  0  0  0  0  0  0  0  0  0  0  0
    0.2924   65.1427   72.0853 H   0  0  0  0  0  0  0  0  0  0  0  0
    1.4834   65.2801   69.9078 H   0  0  0  0  0  0  0  0  0  0  0  0
    2.8694   63.3640   69.0593 H   0  0  0  0  0  0  0  0  0  0  0  0
    2.0612   60.6172   74.7147 H   0  0  0  0  0  0  0  0  0  0  0  0
    1.0471   59.3851   73.8983 H   0  0  0  0  0  0  0  0  0  0  0  0
    3.1938   59.0864   71.8780 H   0  0  0  0  0  0  0  0  0  0  0  0
    4.8558   60.1757   69.8912 H   0  0  0  0  0  0  0  0  0  0  0  0
    3.3890   59.8193   68.9175 H   0  0  0  0  0  0  0  0  0  0  0  0
    4.0867   61.4745   68.9175 H   0  0  0  0  0  0  0  0  0  0  0  0
   -1.3207   65.5883   77.2770 H   0  0  0  0  0  0  0  0  0  0  0  0
   -4.1206   64.6348   76.7613 H   0  0  0  0  0  0  0  0  0  0  0  0
   -4.3769   67.9057   79.2720 H   0  0  0  0  0  0  0  0  0  0  0  0
   -3.5054   68.1322   77.7177 H   0  0  0  0  0  0  0  0  0  0  0  0
   -5.2073   67.5574   77.7177 H   0  0  0  0  0  0  0  0  0  0  0  0
   -4.5380   65.4617   78.7893 H   0  0  0  0  0  0  0  0  0  0  0  0
   -2.8238   66.0656   78.8931 H   0  0  0  0  0  0  0  0  0  0  0  0
   -4.4588   66.1036   75.1072 H   0  0  0  0  0  0  0  0  0  0  0  0
   -4.1224   67.4394   76.2867 H   0  0  0  0  0  0  0  0  0  0  0  0
   -1.8251   67.0793   75.7493 H   0  0  0  0  0  0  0  0  0  0  0  0
  2  1  1  0
  3  2  1  0
  4  3  1  0
  5  3  1  0
  6  5  1  0
  7  1  1  0
  7  6  2  0
  8  6  1  0
  9  8  2  0
 10  9  1  0
 11 10  2  0
 12 11  1  0
 13 12  2  0
 13  8  1  0
 14 13  1  0
 15  5  1  0
 15 14  1  0
 16 14  2  0
 17 12  1  0
 17 16  1  0
 18 17  1  0
 20 19  1  0
 20  1  1  0
 21 20  2  0
 22 19  1  0
 24 22  1  0
 24 23  1  0
 25 22  1  0
 26 25  1  0
  1 27  1  1
  2 28  1  0
  2 29  1  0
  3 30  1  6
  4 31  1  0
  4 32  1  0
  4 33  1  0
  5 34  1  6
  7 35  1  0
  9 36  1  0
 10 37  1  0
 11 38  1  0
 15 39  1  0
 15 40  1  0
 16 41  1  0
 18 42  1  0
 18 43  1  0
 18 44  1  0
 19 45  1  0
 22 46  1  6
 23 47  1  0
 23 48  1  0
 23 49  1  0
 24 50  1  0
 24 51  1  0
 25 52  1  0
 25 53  1  0
 26 54  1  0
M  CHG  1   3   1
M  END
>  <score>  (6) 
-7.384

$$$$
=
     RDKit          3D

 54 57  0  0  0  0  0  0  0  0999 V2000
    1.3050   56.5820   72.9080 C   0  0  1  0  0  0  0  0  0  0  0  0
   -0.0310   57.2100   73.3560 C   0  0  0  0  0  0  0  0  0  0  0  0
    0.2210   58.4070   74.2520 N   0  0  2  0  0  4  0  0  0  0  0  0
   -0.9800   58.8490   75.0210 C   0  0  0  0  0  0  0  0  0  0  0  0
    1.0130   59.5100   73.5580 C   0  0  1  0  0  0  0  0  0  0  0  0
    2.1160   58.9350   72.6360 C   0  0  0  0  0  0  0  0  0  0  0  0
    2.2530   57.6220   72.3660 C   0  0  0  0  0  0  0  0  0  0  0  0
    2.9500   59.9510   71.9590 C   0  0  0  0  0  0  0  0  0  0  0  0
    4.2680   59.8500   71.5120 C   0  0  0  0  0  0  0  0  0  0  0  0
    4.8730   60.9340   70.8600 C   0  0  0  0  0  0  0  0  0  0  0  0
    4.1860   62.1390   70.6290 C   0  0  0  0  0  0  0  0  0  0  0  0
    2.8640   62.2240   71.0820 C   0  0  0  0  0  0  0  0  0  0  0  0
    2.2670   61.1580   71.7320 C   0  0  0  0  0  0  0  0  0  0  0  0
    0.9430   61.5200   72.0840 C   0  0  0  0  0  0  0  0  0  0  0  0
    0.0880   60.5440   72.8210 C   0  0  0  0  0  0  0  0  0  0  0  0
    0.7420   62.8040   71.6360 C   0  0  0  0  0  0  0  0  0  0  0  0
    1.9100   63.2220   71.0300 N   0  0  0  0  0  0  0  0  0  0  0  0
    2.1060   64.5220   70.4250 C   0  0  0  0  0  0  0  0  0  0  0  0
    2.7700   56.7510   74.8650 N   0  0  0  0  0  0  0  0  0  0  0  0
    1.9650   55.9270   74.1180 C   0  0  0  0  0  0  0  0  0  0  0  0
    1.7320   54.7510   74.3970 O   0  0  0  0  0  0  0  0  0  0  0  0
    3.3870   56.2970   76.1140 C   0  0  1  0  0  0  0  0  0  0  0  0
    5.1370   56.8800   77.8720 C   0  0  0  0  0  0  0  0  0  0  0  0
    4.5730   57.2000   76.4930 C   0  0  0  0  0  0  0  0  0  0  0  0
    2.3440   56.2420   77.2500 C   0  0  0  0  0  0  0  0  0  0  0  0
    1.9450   54.9080   77.5350 O   0  0  0  0  0  0  0  0  0  0  0  0
    1.0912   55.8505   72.1148 H   0  0  0  0  0  0  0  0  0  0  0  0
   -0.5947   57.5339   72.4687 H   0  0  0  0  0  0  0  0  0  0  0  0
   -0.6072   56.4596   73.9172 H   0  0  0  0  0  0  0  0  0  0  0  0
    0.8544   58.0843   74.9973 H   0  0  0  0  0  0  0  0  0  0  0  0
   -0.7737   58.7731   76.0988 H   0  0  0  0  0  0  0  0  0  0  0  0
   -1.2154   59.8927   74.7654 H   0  0  0  0  0  0  0  0  0  0  0  0
   -1.8358   58.2069   74.7654 H   0  0  0  0  0  0  0  0  0  0  0  0
    1.5266   60.0763   74.3489 H   0  0  0  0  0  0  0  0  0  0  0  0
    3.0870   57.2968   71.7267 H   0  0  0  0  0  0  0  0  0  0  0  0
    4.8327   58.9195   71.6712 H   0  0  0  0  0  0  0  0  0  0  0  0
    5.9147   60.8390   70.5195 H   0  0  0  0  0  0  0  0  0  0  0  0
    4.6684   62.9819   70.1125 H   0  0  0  0  0  0  0  0  0  0  0  0
   -0.5643   60.0148   72.1107 H   0  0  0  0  0  0  0  0  0  0  0  0
   -0.5350   61.0755   73.5554 H   0  0  0  0  0  0  0  0  0  0  0  0
   -0.1818   63.3918   71.7412 H   0  0  0  0  0  0  0  0  0  0  0  0
    2.2203   65.2801   71.2138 H   0  0  0  0  0  0  0  0  0  0  0  0
    3.0114   64.5031   69.8007 H   0  0  0  0  0  0  0  0  0  0  0  0
    1.2352   64.7709   69.8007 H   0  0  0  0  0  0  0  0  0  0  0  0
    2.9446   57.7124   74.5392 H   0  0  0  0  0  0  0  0  0  0  0  0
    3.7724   55.2783   75.9601 H   0  0  0  0  0  0  0  0  0  0  0  0
    4.4564   57.2661   78.6451 H   0  0  0  0  0  0  0  0  0  0  0  0
    5.2376   55.7903   77.9832 H   0  0  0  0  0  0  0  0  0  0  0  0
    6.1241   57.3526   77.9832 H   0  0  0  0  0  0  0  0  0  0  0  0
    5.3701   57.0661   75.7468 H   0  0  0  0  0  0  0  0  0  0  0  0
    4.2076   58.2373   76.5154 H   0  0  0  0  0  0  0  0  0  0  0  0
    2.7816   56.6844   78.1571 H   0  0  0  0  0  0  0  0  0  0  0  0
    1.4552   56.8033   76.9261 H   0  0  0  0  0  0  0  0  0  0  0  0
    1.9060   54.7776   78.5156 H   0  0  0  0  0  0  0  0  0  0  0  0
  2  1  1  0
  3  2  1  0
  4  3  1  0
  5  3  1  0
  6  5  1  0
  7  1  1  0
  7  6  2  0
  8  6  1  0
  9  8  2  0
 10  9  1  0
 11 10  2  0
 12 11  1  0
 13 12  2  0
 13  8  1  0
 14 13  1  0
 15  5  1  0
 15 14  1  0
 16 14  2  0
 17 12  1  0
 17 16  1  0
 18 17  1  0
 20 19  1  0
 20  1  1  0
 21 20  2  0
 22 19  1  0
 24 22  1  0
 24 23  1  0
 25 22  1  0
 26 25  1  0
  1 27  1  6
  2 28  1  0
  2 29  1  0
  3 30  1  1
  4 31  1  0
  4 32  1  0
  4 33  1  0
  5 34  1  1
  7 35  1  0
  9 36  1  0
 10 37  1  0
 11 38  1  0
 15 39  1  0
 15 40  1  0
 16 41  1  0
 18 42  1  0
 18 43  1  0
 18 44  1  0
 19 45  1  0
 22 46  1  6
 23 47  1  0
 23 48  1  0
 23 49  1  0
 24 50  1  0
 24 51  1  0
 25 52  1  0
 25 53  1  0
 26 54  1  0
M  CHG  1   3   1
M  END
>  <score>  (7) 
-7.333

$$$$
=
     RDKit          3D

 54 57  0  0  0  0  0  0  0  0999 V2000
   -0.4870   59.0480   74.5740 C   0  0  1  0  0  0  0  0  0  0  0  0
   -0.8340   60.5300   74.8230 C   0  0  0  0  0  0  0  0  0  0  0  0
    0.4300   61.3480   74.9980 N   0  0  2  0  0  4  0  0  0  0  0  0
    0.2000   62.6950   75.5980 C   0  0  0  0  0  0  0  0  0  0  0  0
    1.3340   61.3090   73.7690 C   0  0  1  0  0  0  0  0  0  0  0  0
    1.3540   59.9080   73.1120 C   0  0  0  0  0  0  0  0  0  0  0  0
    0.5500   58.8950   73.4900 C   0  0  0  0  0  0  0  0  0  0  0  0
    2.2410   59.7880   71.9350 C   0  0  0  0  0  0  0  0  0  0  0  0
    2.8910   58.6590   71.4360 C   0  0  0  0  0  0  0  0  0  0  0  0
    3.6730   58.7540   70.2770 C   0  0  0  0  0  0  0  0  0  0  0  0
    3.8260   59.9660   69.5800 C   0  0  0  0  0  0  0  0  0  0  0  0
    3.1660   61.0900   70.0920 C   0  0  0  0  0  0  0  0  0  0  0  0
    2.3980   61.0000   71.2400 C   0  0  0  0  0  0  0  0  0  0  0  0
    1.8600   62.2780   71.5320 C   0  0  0  0  0  0  0  0  0  0  0  0
    1.0070   62.4540   72.7440 C   0  0  0  0  0  0  0  0  0  0  0  0
    2.2980   63.1350   70.5520 C   0  0  0  0  0  0  0  0  0  0  0  0
    3.0870   62.4070   69.6830 N   0  0  0  0  0  0  0  0  0  0  0  0
    3.7400   62.9480   68.5100 C   0  0  0  0  0  0  0  0  0  0  0  0
    0.7130   57.2460   75.7220 N   0  0  0  0  0  0  0  0  0  0  0  0
    0.0860   58.4590   75.8600 C   0  0  0  0  0  0  0  0  0  0  0  0
    0.0080   59.0800   76.9210 O   0  0  0  0  0  0  0  0  0  0  0  0
    1.4050   56.6060   76.8440 C   0  0  1  0  0  0  0  0  0  0  0  0
    0.8470   54.6270   75.3380 C   0  0  0  0  0  0  0  0  0  0  0  0
    1.3820   55.0750   76.6930 C   0  0  0  0  0  0  0  0  0  0  0  0
    2.8500   57.1310   76.9660 C   0  0  0  0  0  0  0  0  0  0  0  0
    3.6710   56.2450   77.7160 O   0  0  0  0  0  0  0  0  0  0  0  0
   -1.4053   58.5293   74.2615 H   0  0  0  0  0  0  0  0  0  0  0  0
   -1.4008   60.9185   73.9641 H   0  0  0  0  0  0  0  0  0  0  0  0
   -1.4369   60.6054   75.7400 H   0  0  0  0  0  0  0  0  0  0  0  0
    0.9849   60.8749   75.7254 H   0  0  0  0  0  0  0  0  0  0  0  0
    0.2137   62.6149   76.6950 H   0  0  0  0  0  0  0  0  0  0  0  0
    0.9937   63.3826   75.2706 H   0  0  0  0  0  0  0  0  0  0  0  0
   -0.7769   63.0803   75.2706 H   0  0  0  0  0  0  0  0  0  0  0  0
    2.3572   61.5052   74.1219 H   0  0  0  0  0  0  0  0  0  0  0  0
    0.6539   57.9209   72.9896 H   0  0  0  0  0  0  0  0  0  0  0  0
    2.7896   57.6933   71.9528 H   0  0  0  0  0  0  0  0  0  0  0  0
    4.1821   57.8542   69.9013 H   0  0  0  0  0  0  0  0  0  0  0  0
    4.4395   60.0285   68.6691 H   0  0  0  0  0  0  0  0  0  0  0  0
   -0.0542   62.4022   72.4590 H   0  0  0  0  0  0  0  0  0  0  0  0
    1.2097   63.4330   73.2027 H   0  0  0  0  0  0  0  0  0  0  0  0
    2.0630   64.2067   70.4735 H   0  0  0  0  0  0  0  0  0  0  0  0
    4.5526   63.6212   68.8204 H   0  0  0  0  0  0  0  0  0  0  0  0
    4.1548   62.1253   67.9091 H   0  0  0  0  0  0  0  0  0  0  0  0
    3.0088   63.5086   67.9091 H   0  0  0  0  0  0  0  0  0  0  0  0
    0.6968   56.7736   74.8068 H   0  0  0  0  0  0  0  0  0  0  0  0
    0.8732   56.8636   77.7718 H   0  0  0  0  0  0  0  0  0  0  0  0
    0.0114   53.9273   75.4868 H   0  0  0  0  0  0  0  0  0  0  0  0
    0.4951   55.5038   74.7746 H   0  0  0  0  0  0  0  0  0  0  0  0
    1.6484   54.1266   74.7746 H   0  0  0  0  0  0  0  0  0  0  0  0
    2.4073   54.6941   76.8103 H   0  0  0  0  0  0  0  0  0  0  0  0
    0.7092   54.6744   77.4655 H   0  0  0  0  0  0  0  0  0  0  0  0
    3.2748   57.2427   75.9575 H   0  0  0  0  0  0  0  0  0  0  0  0
    2.8201   58.0972   77.4910 H   0  0  0  0  0  0  0  0  0  0  0  0
    3.5269   56.4005   78.6830 H   0  0  0  0  0  0  0  0  0  0  0  0
  2  1  1  0
  3  2  1  0
  4  3  1  0
  5  3  1  0
  6  5  1  0
  7  1  1  0
  7  6  2  0
  8  6  1  0
  9  8  2  0
 10  9  1  0
 11 10  2  0
 12 11  1  0
 13 12  2  0
 13  8  1  0
 14 13  1  0
 15  5  1  0
 15 14  1  0
 16 14  2  0
 17 12  1  0
 17 16  1  0
 18 17  1  0
 20 19  1  0
 20  1  1  0
 21 20  2  0
 22 19  1  0
 24 22  1  0
 24 23  1  0
 25 22  1  0
 26 25  1  0
  1 27  1  6
  2 28  1  0
  2 29  1  0
  3 30  1  1
  4 31  1  0
  4 32  1  0
  4 33  1  0
  5 34  1  1
  7 35  1  0
  9 36  1  0
 10 37  1  0
 11 38  1  0
 15 39  1  0
 15 40  1  0
 16 41  1  0
 18 42  1  0
 18 43  1  0
 18 44  1  0
 19 45  1  0
 22 46  1  1
 23 47  1  0
 23 48  1  0
 23 49  1  0
 24 50  1  0
 24 51  1  0
 25 52  1  0
 25 53  1  0
 26 54  1  0
M  CHG  1   3   1
M  END
>  <score>  (8) 
-7.099

$$$$
=
     RDKit          3D

 54 57  0  0  0  0  0  0  0  0999 V2000
    1.8400   58.9270   72.5770 C   0  0  1  0  0  0  0  0  0  0  0  0
    2.3620   58.0940   73.7640 C   0  0  0  0  0  0  0  0  0  0  0  0
    3.3480   58.9020   74.5860 N   0  0  2  0  0  4  0  0  0  0  0  0
    4.1730   58.0810   75.5200 C   0  0  0  0  0  0  0  0  0  0  0  0
    2.7300   60.1670   75.1750 C   0  0  1  0  0  0  0  0  0  0  0  0
    1.7450   60.8400   74.1890 C   0  0  0  0  0  0  0  0  0  0  0  0
    1.3660   60.2890   73.0190 C   0  0  0  0  0  0  0  0  0  0  0  0
    1.1370   62.0940   74.6810 C   0  0  0  0  0  0  0  0  0  0  0  0
    0.6580   63.1840   73.9520 C   0  0  0  0  0  0  0  0  0  0  0  0
    0.0850   64.2760   74.6180 C   0  0  0  0  0  0  0  0  0  0  0  0
   -0.0340   64.3140   76.0190 C   0  0  0  0  0  0  0  0  0  0  0  0
    0.4480   63.2130   76.7360 C   0  0  0  0  0  0  0  0  0  0  0  0
    1.0210   62.1360   76.0810 C   0  0  0  0  0  0  0  0  0  0  0  0
    1.4270   61.1780   77.0440 C   0  0  0  0  0  0  0  0  0  0  0  0
    2.0980   59.9240   76.5920 C   0  0  0  0  0  0  0  0  0  0  0  0
    1.0880   61.6780   78.2790 C   0  0  0  0  0  0  0  0  0  0  0  0
    0.4960   62.9090   78.0830 N   0  0  0  0  0  0  0  0  0  0  0  0
   -0.0050   63.7620   79.1400 C   0  0  0  0  0  0  0  0  0  0  0  0
    3.0980   60.3930   71.0700 N   0  0  0  0  0  0  0  0  0  0  0  0
    2.9800   59.1250   71.5820 C   0  0  0  0  0  0  0  0  0  0  0  0
    3.7460   58.1990   71.3150 O   0  0  0  0  0  0  0  0  0  0  0  0
    4.2070   60.7660   70.1860 C   0  0  1  0  0  0  0  0  0  0  0  0
    2.4670   62.5600   69.6880 C   0  0  0  0  0  0  0  0  0  0  0  0
    3.8240   61.9760   69.3170 C   0  0  0  0  0  0  0  0  0  0  0  0
    5.4840   61.0490   71.0030 C   0  0  0  0  0  0  0  0  0  0  0  0
    5.4090   62.2940   71.6840 O   0  0  0  0  0  0  0  0  0  0  0  0
    0.9942   58.3873   72.1262 H   0  0  0  0  0  0  0  0  0  0  0  0
    1.5145   57.8004   74.4009 H   0  0  0  0  0  0  0  0  0  0  0  0
    2.8711   57.1998   73.3750 H   0  0  0  0  0  0  0  0  0  0  0  0
    4.0535   59.2588   73.9258 H   0  0  0  0  0  0  0  0  0  0  0  0
    3.9156   58.3371   76.5583 H   0  0  0  0  0  0  0  0  0  0  0  0
    3.9722   57.0137   75.3451 H   0  0  0  0  0  0  0  0  0  0  0  0
    5.2393   58.2870   75.3451 H   0  0  0  0  0  0  0  0  0  0  0  0
    3.5532   60.8796   75.3318 H   0  0  0  0  0  0  0  0  0  0  0  0
    0.6866   60.8528   72.3628 H   0  0  0  0  0  0  0  0  0  0  0  0
    0.7303   63.1858   72.8544 H   0  0  0  0  0  0  0  0  0  0  0  0
   -0.2824   65.1284   74.0277 H   0  0  0  0  0  0  0  0  0  0  0  0
   -0.4881   65.1752   76.5310 H   0  0  0  0  0  0  0  0  0  0  0  0
    1.3595   59.1110   76.5323 H   0  0  0  0  0  0  0  0  0  0  0  0
    2.8849   59.6438   77.3077 H   0  0  0  0  0  0  0  0  0  0  0  0
    1.2579   61.1859   79.2480 H   0  0  0  0  0  0  0  0  0  0  0  0
    0.2516   63.3251   80.1164 H   0  0  0  0  0  0  0  0  0  0  0  0
    0.4508   64.7594   79.0534 H   0  0  0  0  0  0  0  0  0  0  0  0
   -1.0981   63.8496   79.0534 H   0  0  0  0  0  0  0  0  0  0  0  0
    2.3898   61.1004   71.3128 H   0  0  0  0  0  0  0  0  0  0  0  0
    4.4165   59.9199   69.5150 H   0  0  0  0  0  0  0  0  0  0  0  0
    2.3724   62.6007   70.7832 H   0  0  0  0  0  0  0  0  0  0  0  0
    2.3794   63.5755   69.2744 H   0  0  0  0  0  0  0  0  0  0  0  0
    1.6693   61.9255   69.2744 H   0  0  0  0  0  0  0  0  0  0  0  0
    4.5892   62.7561   69.4430 H   0  0  0  0  0  0  0  0  0  0  0  0
    3.7633   61.6305   68.2744 H   0  0  0  0  0  0  0  0  0  0  0  0
    5.6189   60.2460   71.7426 H   0  0  0  0  0  0  0  0  0  0  0  0
    6.3339   61.0909   70.3059 H   0  0  0  0  0  0  0  0  0  0  0  0
    5.4185   62.1366   72.6614 H   0  0  0  0  0  0  0  0  0  0  0  0
  2  1  1  0
  3  2  1  0
  4  3  1  0
  5  3  1  0
  6  5  1  0
  7  1  1  0
  7  6  2  0
  8  6  1  0
  9  8  2  0
 10  9  1  0
 11 10  2  0
 12 11  1  0
 13 12  2  0
 13  8  1  0
 14 13  1  0
 15  5  1  0
 15 14  1  0
 16 14  2  0
 17 12  1  0
 17 16  1  0
 18 17  1  0
 20 19  1  0
 20  1  1  0
 21 20  2  0
 22 19  1  0
 24 22  1  0
 24 23  1  0
 25 22  1  0
 26 25  1  0
  1 27  1  6
  2 28  1  0
  2 29  1  0
  3 30  1  6
  4 31  1  0
  4 32  1  0
  4 33  1  0
  5 34  1  1
  7 35  1  0
  9 36  1  0
 10 37  1  0
 11 38  1  0
 15 39  1  0
 15 40  1  0
 16 41  1  0
 18 42  1  0
 18 43  1  0
 18 44  1  0
 19 45  1  0
 22 46  1  6
 23 47  1  0
 23 48  1  0
 23 49  1  0
 24 50  1  0
 24 51  1  0
 25 52  1  0
 25 53  1  0
 26 54  1  0
M  CHG  1   3   1
M  END
>  <score>  (9) 
-6.938

$$$$
