=
     RDKit          3D

 45 46  0  0  0  0  0  0  0  0999 V2000
   -0.9610   68.3010   66.8970 S   0  0  0  0  0  6  0  0  0  0  0  0
   -1.7690   67.3050   67.5550 O   0  0  0  0  0  0  0  0  0  0  0  0
   -1.5350   69.5170   66.3770 O   0  0  0  0  0  0  0  0  0  0  0  0
    0.2040   68.7470   67.9660 N   0  0  0  0  0  0  0  0  0  0  0  0
    1.2170   67.8930   68.3770 C   0  0  0  0  0  0  0  0  0  0  0  0
    1.1380   66.6740   68.3470 O   0  0  0  0  0  0  0  0  0  0  0  0
    2.2790   68.5920   68.8390 O   0  0  0  0  0  0  0  0  0  0  0  0
    2.4050   69.8910   68.2570 C   0  0  0  0  0  0  0  0  0  0  0  0
    3.8440   70.0730   67.8510 C   0  0  0  0  0  0  0  0  0  0  0  0
    4.2930   69.6270   66.6000 C   0  0  0  0  0  0  0  0  0  0  0  0
    5.6310   69.7780   66.2340 C   0  0  0  0  0  0  0  0  0  0  0  0
    6.5340   70.3680   67.1150 C   0  0  0  0  0  0  0  0  0  0  0  0
    6.1010   70.8040   68.3660 C   0  0  0  0  0  0  0  0  0  0  0  0
    4.7630   70.6540   68.7350 C   0  0  0  0  0  0  0  0  0  0  0  0
   -0.0930   67.5890   65.6870 N   0  0  0  0  0  0  0  0  0  0  0  0
    0.8460   68.3600   64.8670 C   0  0  2  0  0  0  0  0  0  0  0  0
    0.1700   68.9710   63.6400 C   0  0  0  0  0  0  0  0  0  0  0  0
    4.1570   65.7910   63.7100 C   0  0  0  0  0  0  0  0  0  0  0  0
    3.1560   65.3280   64.5640 C   0  0  0  0  0  0  0  0  0  0  0  0
    2.0930   66.1550   64.9340 C   0  0  0  0  0  0  0  0  0  0  0  0
    2.0150   67.4730   64.4630 C   0  0  0  0  0  0  0  0  0  0  0  0
    3.0220   67.9290   63.5950 C   0  0  0  0  0  0  0  0  0  0  0  0
    4.0850   67.0950   63.2240 C   0  0  0  0  0  0  0  0  0  0  0  0
    4.8790   63.5270   63.7890 C   0  0  0  0  0  0  0  0  0  0  0  0
    5.1370   64.8790   63.4290 O   0  0  0  0  0  0  0  0  0  0  0  0
    0.1813   69.7032   68.3481 H   0  0  0  0  0  0  0  0  0  0  0  0
    1.7536   69.9708   67.3742 H   0  0  0  0  0  0  0  0  0  0  0  0
    2.1068   70.6667   68.9777 H   0  0  0  0  0  0  0  0  0  0  0  0
    3.5857   69.1548   65.9023 H   0  0  0  0  0  0  0  0  0  0  0  0
    5.9731   69.4305   65.2480 H   0  0  0  0  0  0  0  0  0  0  0  0
    7.5878   70.4898   66.8238 H   0  0  0  0  0  0  0  0  0  0  0  0
    6.8145   71.2669   69.0635 H   0  0  0  0  0  0  0  0  0  0  0  0
    4.4280   70.9941   69.7260 H   0  0  0  0  0  0  0  0  0  0  0  0
    0.4546   66.8352   66.1260 H   0  0  0  0  0  0  0  0  0  0  0  0
    1.2193   69.2006   65.4703 H   0  0  0  0  0  0  0  0  0  0  0  0
   -0.6099   69.6759   63.9640 H   0  0  0  0  0  0  0  0  0  0  0  0
    0.9189   69.5047   63.0365 H   0  0  0  0  0  0  0  0  0  0  0  0
   -0.2856   68.1721   63.0365 H   0  0  0  0  0  0  0  0  0  0  0  0
    3.2044   64.2993   64.9507 H   0  0  0  0  0  0  0  0  0  0  0  0
    1.3091   65.7682   65.6017 H   0  0  0  0  0  0  0  0  0  0  0  0
    2.9749   68.9551   63.2014 H   0  0  0  0  0  0  0  0  0  0  0  0
    4.8657   67.4711   62.5465 H   0  0  0  0  0  0  0  0  0  0  0  0
    4.8617   63.4363   64.8851 H   0  0  0  0  0  0  0  0  0  0  0  0
    3.9057   63.2180   63.3801 H   0  0  0  0  0  0  0  0  0  0  0  0
    5.6701   62.8813   63.3801 H   0  0  0  0  0  0  0  0  0  0  0  0
  2  1  2  0
  3  1  2  0
  4  1  1  0
  5  4  1  0
  6  5  2  0
  7  5  1  0
  8  7  1  0
  9  8  1  0
 10  9  2  0
 11 10  1  0
 12 11  2  0
 13 12  1  0
 14  9  1  0
 14 13  2  0
 15  1  1  0
 16 15  1  0
 17 16  1  0
 19 18  2  0
 20 19  1  0
 21 20  2  0
 21 16  1  0
 22 21  1  0
 23 22  2  0
 23 18  1  0
 25 24  1  0
 25 18  1  0
  4 26  1  0
  8 27  1  0
  8 28  1  0
 10 29  1  0
 11 30  1  0
 12 31  1  0
 13 32  1  0
 14 33  1  0
 15 34  1  0
 16 35  1  1
 17 36  1  0
 17 37  1  0
 17 38  1  0
 19 39  1  0
 20 40  1  0
 22 41  1  0
 23 42  1  0
 24 43  1  0
 24 44  1  0
 24 45  1  0
M  END
>  <score>  (1) 
-10.169

$$$$
=
     RDKit          3D

 45 46  0  0  0  0  0  0  0  0999 V2000
    1.2410   67.4490   65.6540 S   0  0  0  0  0  6  0  0  0  0  0  0
    1.0960   66.1400   65.0670 O   0  0  0  0  0  0  0  0  0  0  0  0
    0.5390   68.5940   65.1310 O   0  0  0  0  0  0  0  0  0  0  0  0
    0.8080   67.3090   67.2330 N   0  0  0  0  0  0  0  0  0  0  0  0
   -0.4510   66.8880   67.6360 C   0  0  0  0  0  0  0  0  0  0  0  0
   -1.4550   66.9790   66.9460 O   0  0  0  0  0  0  0  0  0  0  0  0
   -0.4150   66.3980   68.8960 O   0  0  0  0  0  0  0  0  0  0  0  0
    0.8350   66.6070   69.5560 C   0  0  0  0  0  0  0  0  0  0  0  0
    1.0790   65.4270   70.4590 C   0  0  0  0  0  0  0  0  0  0  0  0
    2.2670   64.6880   70.3600 C   0  0  0  0  0  0  0  0  0  0  0  0
    2.4830   63.5830   71.1840 C   0  0  0  0  0  0  0  0  0  0  0  0
    1.5120   63.2000   72.1080 C   0  0  0  0  0  0  0  0  0  0  0  0
    0.3230   63.9200   72.2060 C   0  0  0  0  0  0  0  0  0  0  0  0
    0.1050   65.0260   71.3830 C   0  0  0  0  0  0  0  0  0  0  0  0
    2.8430   67.8310   65.7480 N   0  0  0  0  0  0  0  0  0  0  0  0
    3.3440   69.1350   65.3030 C   0  0  2  0  0  0  0  0  0  0  0  0
    4.0060   69.0580   63.9270 C   0  0  0  0  0  0  0  0  0  0  0  0
    6.1140   70.7540   68.2370 C   0  0  0  0  0  0  0  0  0  0  0  0
    6.5450   70.4180   66.9540 C   0  0  0  0  0  0  0  0  0  0  0  0
    5.6530   69.8980   66.0130 C   0  0  0  0  0  0  0  0  0  0  0  0
    4.3060   69.6930   66.3420 C   0  0  0  0  0  0  0  0  0  0  0  0
    3.8770   70.0440   67.6330 C   0  0  0  0  0  0  0  0  0  0  0  0
    4.7730   70.5680   68.5740 C   0  0  0  0  0  0  0  0  0  0  0  0
    7.3080   70.5680   70.2840 C   0  0  0  0  0  0  0  0  0  0  0  0
    7.0880   71.2520   69.0570 O   0  0  0  0  0  0  0  0  0  0  0  0
    1.5026   67.5444   67.9561 H   0  0  0  0  0  0  0  0  0  0  0  0
    1.6427   66.6836   68.8131 H   0  0  0  0  0  0  0  0  0  0  0  0
    0.8117   67.5397   70.1387 H   0  0  0  0  0  0  0  0  0  0  0  0
    3.0336   64.9816   69.6278 H   0  0  0  0  0  0  0  0  0  0  0  0
    3.4206   63.0133   71.1044 H   0  0  0  0  0  0  0  0  0  0  0  0
    1.6842   62.3303   72.7591 H   0  0  0  0  0  0  0  0  0  0  0  0
   -0.4447   63.6163   72.9329 H   0  0  0  0  0  0  0  0  0  0  0  0
   -0.8381   65.5868   71.4603 H   0  0  0  0  0  0  0  0  0  0  0  0
    3.1061   67.7410   66.7398 H   0  0  0  0  0  0  0  0  0  0  0  0
    2.4856   69.8152   65.2007 H   0  0  0  0  0  0  0  0  0  0  0  0
    5.0919   68.9317   64.0491 H   0  0  0  0  0  0  0  0  0  0  0  0
    3.5974   68.2013   63.3710 H   0  0  0  0  0  0  0  0  0  0  0  0
    3.8050   69.9856   63.3710 H   0  0  0  0  0  0  0  0  0  0  0  0
    7.6001   70.5642   66.6796 H   0  0  0  0  0  0  0  0  0  0  0  0
    6.0113   69.6469   65.0038 H   0  0  0  0  0  0  0  0  0  0  0  0
    2.8213   69.9053   67.9092 H   0  0  0  0  0  0  0  0  0  0  0  0
    4.4184   70.8334   69.5809 H   0  0  0  0  0  0  0  0  0  0  0  0
    7.0907   71.2436   71.1245 H   0  0  0  0  0  0  0  0  0  0  0  0
    6.6467   69.6906   70.3384 H   0  0  0  0  0  0  0  0  0  0  0  0
    8.3568   70.2406   70.3384 H   0  0  0  0  0  0  0  0  0  0  0  0
  2  1  2  0
  3  1  2  0
  4  1  1  0
  5  4  1  0
  6  5  2  0
  7  5  1  0
  8  7  1  0
  9  8  1  0
 10  9  2  0
 11 10  1  0
 12 11  2  0
 13 12  1  0
 14  9  1  0
 14 13  2  0
 15  1  1  0
 16 15  1  0
 17 16  1  0
 19 18  2  0
 20 19  1  0
 21 20  2  0
 21 16  1  0
 22 21  1  0
 23 22  2  0
 23 18  1  0
 25 24  1  0
 25 18  1  0
  4 26  1  0
  8 27  1  0
  8 28  1  0
 10 29  1  0
 11 30  1  0
 12 31  1  0
 13 32  1  0
 14 33  1  0
 15 34  1  0
 16 35  1  6
 17 36  1  0
 17 37  1  0
 17 38  1  0
 19 39  1  0
 20 40  1  0
 22 41  1  0
 23 42  1  0
 24 43  1  0
 24 44  1  0
 24 45  1  0
M  END
>  <score>  (2) 
-9.718

$$$$
=
     RDKit          3D

 45 46  0  0  0  0  0  0  0  0999 V2000
    0.7420   67.8840   66.7980 S   0  0  0  0  0  6  0  0  0  0  0  0
    0.1790   67.0310   65.7810 O   0  0  0  0  0  0  0  0  0  0  0  0
    0.2560   69.2230   67.0170 O   0  0  0  0  0  0  0  0  0  0  0  0
    0.5850   67.0840   68.2250 N   0  0  0  0  0  0  0  0  0  0  0  0
   -0.6050   66.4990   68.6350 C   0  0  0  0  0  0  0  0  0  0  0  0
   -1.7080   66.8450   68.2390 O   0  0  0  0  0  0  0  0  0  0  0  0
   -0.3750   65.5280   69.5480 O   0  0  0  0  0  0  0  0  0  0  0  0
    0.7650   65.7770   70.3730 C   0  0  0  0  0  0  0  0  0  0  0  0
    1.3770   64.4460   70.7210 C   0  0  0  0  0  0  0  0  0  0  0  0
    0.6000   63.4360   71.3090 C   0  0  0  0  0  0  0  0  0  0  0  0
    1.1740   62.2100   71.6490 C   0  0  0  0  0  0  0  0  0  0  0  0
    2.5290   61.9840   71.4140 C   0  0  0  0  0  0  0  0  0  0  0  0
    3.3120   62.9840   70.8420 C   0  0  0  0  0  0  0  0  0  0  0  0
    2.7410   64.2110   70.5000 C   0  0  0  0  0  0  0  0  0  0  0  0
    2.3780   67.9600   66.6010 N   0  0  0  0  0  0  0  0  0  0  0  0
    3.0050   69.0420   65.8350 C   0  0  2  0  0  0  0  0  0  0  0  0
    3.5690   68.5500   64.5020 C   0  0  0  0  0  0  0  0  0  0  0  0
    6.1140   70.9490   68.2010 C   0  0  0  0  0  0  0  0  0  0  0  0
    6.3680   70.5170   66.8990 C   0  0  0  0  0  0  0  0  0  0  0  0
    5.3670   69.9040   66.1410 C   0  0  0  0  0  0  0  0  0  0  0  0
    4.0880   69.7020   66.6770 C   0  0  0  0  0  0  0  0  0  0  0  0
    3.8370   70.1490   67.9850 C   0  0  0  0  0  0  0  0  0  0  0  0
    4.8420   70.7660   68.7410 C   0  0  0  0  0  0  0  0  0  0  0  0
    7.7360   70.8310   69.9340 C   0  0  0  0  0  0  0  0  0  0  0  0
    7.1800   71.5310   68.8280 O   0  0  0  0  0  0  0  0  0  0  0  0
    1.4063   67.0136   68.8426 H   0  0  0  0  0  0  0  0  0  0  0  0
    1.4946   66.3939   69.8278 H   0  0  0  0  0  0  0  0  0  0  0  0
    0.4702   66.3161   71.2854 H   0  0  0  0  0  0  0  0  0  0  0  0
   -0.4684   63.6117   71.5032 H   0  0  0  0  0  0  0  0  0  0  0  0
    0.5562   61.4212   72.1030 H   0  0  0  0  0  0  0  0  0  0  0  0
    2.9798   61.0166   71.6801 H   0  0  0  0  0  0  0  0  0  0  0  0
    4.3821   62.8065   70.6595 H   0  0  0  0  0  0  0  0  0  0  0  0
    3.3658   64.9989   70.0540 H   0  0  0  0  0  0  0  0  0  0  0  0
    2.7837   67.9999   67.5469 H   0  0  0  0  0  0  0  0  0  0  0  0
    2.2305   69.7848   65.5936 H   0  0  0  0  0  0  0  0  0  0  0  0
    4.3857   67.8375   64.6900 H   0  0  0  0  0  0  0  0  0  0  0  0
    2.7731   68.0524   63.9284 H   0  0  0  0  0  0  0  0  0  0  0  0
    3.9540   69.4060   63.9284 H   0  0  0  0  0  0  0  0  0  0  0  0
    7.3681   70.6607   66.4640 H   0  0  0  0  0  0  0  0  0  0  0  0
    5.5850   69.5768   65.1137 H   0  0  0  0  0  0  0  0  0  0  0  0
    2.8367   70.0125   68.4218 H   0  0  0  0  0  0  0  0  0  0  0  0
    4.6267   71.1073   69.7643 H   0  0  0  0  0  0  0  0  0  0  0  0
    7.3777   71.2821   70.8711 H   0  0  0  0  0  0  0  0  0  0  0  0
    7.4269   69.7761   69.8932 H   0  0  0  0  0  0  0  0  0  0  0  0
    8.8335   70.8933   69.8932 H   0  0  0  0  0  0  0  0  0  0  0  0
  2  1  2  0
  3  1  2  0
  4  1  1  0
  5  4  1  0
  6  5  2  0
  7  5  1  0
  8  7  1  0
  9  8  1  0
 10  9  2  0
 11 10  1  0
 12 11  2  0
 13 12  1  0
 14  9  1  0
 14 13  2  0
 15  1  1  0
 16 15  1  0
 17 16  1  0
 19 18  2  0
 20 19  1  0
 21 20  2  0
 21 16  1  0
 22 21  1  0
 23 22  2  0
 23 18  1  0
 25 24  1  0
 25 18  1  0
  4 26  1  0
  8 27  1  0
  8 28  1  0
 10 29  1  0
 11 30  1  0
 12 31  1  0
 13 32  1  0
 14 33  1  0
 15 34  1  0
 16 35  1  6
 17 36  1  0
 17 37  1  0
 17 38  1  0
 19 39  1  0
 20 40  1  0
 22 41  1  0
 23 42  1  0
 24 43  1  0
 24 44  1  0
 24 45  1  0
M  END
>  <score>  (3) 
-9.448

$$$$
=
     RDKit          3D

 45 46  0  0  0  0  0  0  0  0999 V2000
   -0.9570   68.4110   66.4570 S   0  0  0  0  0  6  0  0  0  0  0  0
   -1.9140   69.4800   66.3160 O   0  0  0  0  0  0  0  0  0  0  0  0
   -1.3700   67.0320   66.5360 O   0  0  0  0  0  0  0  0  0  0  0  0
    0.0710   68.5250   65.1800 N   0  0  0  0  0  0  0  0  0  0  0  0
   -0.3500   68.8570   63.9000 C   0  0  0  0  0  0  0  0  0  0  0  0
   -1.4890   68.6930   63.4910 O   0  0  0  0  0  0  0  0  0  0  0  0
    0.6750   69.3520   63.1700 O   0  0  0  0  0  0  0  0  0  0  0  0
    1.3260   68.3720   62.3590 C   0  0  0  0  0  0  0  0  0  0  0  0
    2.7320   68.2120   62.8750 C   0  0  0  0  0  0  0  0  0  0  0  0
    3.7210   69.1540   62.5530 C   0  0  0  0  0  0  0  0  0  0  0  0
    5.0280   68.9920   63.0160 C   0  0  0  0  0  0  0  0  0  0  0  0
    5.3610   67.8880   63.7970 C   0  0  0  0  0  0  0  0  0  0  0  0
    4.3890   66.9400   64.1130 C   0  0  0  0  0  0  0  0  0  0  0  0
    3.0810   67.0990   63.6520 C   0  0  0  0  0  0  0  0  0  0  0  0
    0.0260   68.7240   67.7450 N   0  0  0  0  0  0  0  0  0  0  0  0
    1.2650   67.9720   67.9590 C   0  0  2  0  0  0  0  0  0  0  0  0
    1.2350   67.1720   69.2610 C   0  0  0  0  0  0  0  0  0  0  0  0
    4.6620   70.6860   67.9250 C   0  0  0  0  0  0  0  0  0  0  0  0
    3.8460   70.5740   69.0510 C   0  0  0  0  0  0  0  0  0  0  0  0
    2.7550   69.7010   69.0590 C   0  0  0  0  0  0  0  0  0  0  0  0
    2.4520   68.9260   67.9310 C   0  0  0  0  0  0  0  0  0  0  0  0
    3.2840   69.0360   66.8050 C   0  0  0  0  0  0  0  0  0  0  0  0
    4.3790   69.9110   66.8010 C   0  0  0  0  0  0  0  0  0  0  0  0
    6.9050   71.0800   68.6070 C   0  0  0  0  0  0  0  0  0  0  0  0
    5.6930   71.5750   68.0510 O   0  0  0  0  0  0  0  0  0  0  0  0
    1.0724   68.3419   65.3366 H   0  0  0  0  0  0  0  0  0  0  0  0
    0.7905   67.4136   62.4271 H   0  0  0  0  0  0  0  0  0  0  0  0
    1.3357   68.6882   61.3055 H   0  0  0  0  0  0  0  0  0  0  0  0
    3.4649   70.0252   61.9321 H   0  0  0  0  0  0  0  0  0  0  0  0
    5.7963   69.7377   62.7635 H   0  0  0  0  0  0  0  0  0  0  0  0
    6.3904   67.7641   64.1643 H   0  0  0  0  0  0  0  0  0  0  0  0
    4.6530   66.0658   64.7262 H   0  0  0  0  0  0  0  0  0  0  0  0
    2.3190   66.3456   63.9003 H   0  0  0  0  0  0  0  0  0  0  0  0
    0.2960   69.7152   67.6711 H   0  0  0  0  0  0  0  0  0  0  0  0
    1.3670   67.2409   67.1435 H   0  0  0  0  0  0  0  0  0  0  0  0
    1.2609   67.8629   70.1166 H   0  0  0  0  0  0  0  0  0  0  0  0
    0.3137   66.5723   69.3017 H   0  0  0  0  0  0  0  0  0  0  0  0
    2.1088   66.5050   69.3017 H   0  0  0  0  0  0  0  0  0  0  0  0
    4.0640   71.1799   69.9428 H   0  0  0  0  0  0  0  0  0  0  0  0
    2.1279   69.6212   69.9592 H   0  0  0  0  0  0  0  0  0  0  0  0
    3.0734   68.4269   65.9136 H   0  0  0  0  0  0  0  0  0  0  0  0
    5.0171   69.9865   65.9082 H   0  0  0  0  0  0  0  0  0  0  0  0
    6.8421   71.1057   69.7049 H   0  0  0  0  0  0  0  0  0  0  0  0
    7.0655   70.0443   68.2730 H   0  0  0  0  0  0  0  0  0  0  0  0
    7.7447   71.7072   68.2730 H   0  0  0  0  0  0  0  0  0  0  0  0
  2  1  2  0
  3  1  2  0
  4  1  1  0
  5  4  1  0
  6  5  2  0
  7  5  1  0
  8  7  1  0
  9  8  1  0
 10  9  2  0
 11 10  1  0
 12 11  2  0
 13 12  1  0
 14  9  1  0
 14 13  2  0
 15  1  1  0
 16 15  1  0
 17 16  1  0
 19 18  2  0
 20 19  1  0
 21 20  2  0
 21 16  1  0
 22 21  1  0
 23 22  2  0
 23 18  1  0
 25 24  1  0
 25 18  1  0
  4 26  1  0
  8 27  1  0
  8 28  1  0
 10 29  1  0
 11 30  1  0
 12 31  1  0
 13 32  1  0
 14 33  1  0
 15 34  1  0
 16 35  1  6
 17 36  1  0
 17 37  1  0
 17 38  1  0
 19 39  1  0
 20 40  1  0
 22 41  1  0
 23 42  1  0
 24 43  1  0
 24 44  1  0
 24 45  1  0
M  END
>  <score>  (4) 
-8.968

$$$$
=
     RDKit          3D

 45 46  0  0  0  0  0  0  0  0999 V2000
    0.3040   67.8210   67.7360 S   0  0  0  0  0  6  0  0  0  0  0  0
    0.6950   66.9140   66.6860 O   0  0  0  0  0  0  0  0  0  0  0  0
   -1.0800   68.1320   67.9910 O   0  0  0  0  0  0  0  0  0  0  0  0
    0.9200   67.2190   69.1350 N   0  0  0  0  0  0  0  0  0  0  0  0
    0.5870   65.9650   69.6270 C   0  0  0  0  0  0  0  0  0  0  0  0
   -0.4450   65.3740   69.3490 O   0  0  0  0  0  0  0  0  0  0  0  0
    1.5410   65.5100   70.4710 O   0  0  0  0  0  0  0  0  0  0  0  0
    1.2080   64.2700   71.0970 C   0  0  0  0  0  0  0  0  0  0  0  0
    2.3640   63.3270   70.8890 C   0  0  0  0  0  0  0  0  0  0  0  0
    2.1710   61.9390   70.9500 C   0  0  0  0  0  0  0  0  0  0  0  0
    3.2480   61.0680   70.7770 C   0  0  0  0  0  0  0  0  0  0  0  0
    4.5260   61.5730   70.5500 C   0  0  0  0  0  0  0  0  0  0  0  0
    4.7300   62.9510   70.4990 C   0  0  0  0  0  0  0  0  0  0  0  0
    3.6560   63.8250   70.6720 C   0  0  0  0  0  0  0  0  0  0  0  0
    1.1220   69.2440   67.5610 N   0  0  0  0  0  0  0  0  0  0  0  0
    2.5200   69.3770   67.9820 C   0  0  2  0  0  0  0  0  0  0  0  0
    2.7400   70.6000   68.8720 C   0  0  0  0  0  0  0  0  0  0  0  0
    5.0520   69.5320   64.4510 C   0  0  0  0  0  0  0  0  0  0  0  0
    3.7200   69.1290   64.3600 C   0  0  0  0  0  0  0  0  0  0  0  0
    2.9080   69.0800   65.4960 C   0  0  0  0  0  0  0  0  0  0  0  0
    3.4200   69.4260   66.7540 C   0  0  0  0  0  0  0  0  0  0  0  0
    4.7590   69.8410   66.8370 C   0  0  0  0  0  0  0  0  0  0  0  0
    5.5690   69.8920   65.6940 C   0  0  0  0  0  0  0  0  0  0  0  0
    5.7790   68.3080   62.5470 C   0  0  0  0  0  0  0  0  0  0  0  0
    5.7320   69.5350   63.2640 O   0  0  0  0  0  0  0  0  0  0  0  0
    1.5826   67.7979   69.6705 H   0  0  0  0  0  0  0  0  0  0  0  0
    1.0411   64.4264   72.1729 H   0  0  0  0  0  0  0  0  0  0  0  0
    0.2878   63.8534   70.6614 H   0  0  0  0  0  0  0  0  0  0  0  0
    1.1650   61.5345   71.1353 H   0  0  0  0  0  0  0  0  0  0  0  0
    3.0871   59.9807   70.8200 H   0  0  0  0  0  0  0  0  0  0  0  0
    5.3733   60.8853   70.4111 H   0  0  0  0  0  0  0  0  0  0  0  0
    5.7396   63.3503   70.3220 H   0  0  0  0  0  0  0  0  0  0  0  0
    3.8244   64.9115   70.6379 H   0  0  0  0  0  0  0  0  0  0  0  0
    1.0972   69.4726   66.5570 H   0  0  0  0  0  0  0  0  0  0  0  0
    2.7797   68.4968   68.5885 H   0  0  0  0  0  0  0  0  0  0  0  0
    2.6859   70.2990   69.9286 H   0  0  0  0  0  0  0  0  0  0  0  0
    3.7302   71.0315   68.6639 H   0  0  0  0  0  0  0  0  0  0  0  0
    1.9623   71.3496   68.6639 H   0  0  0  0  0  0  0  0  0  0  0  0
    3.3036   68.8463   63.3819 H   0  0  0  0  0  0  0  0  0  0  0  0
    1.8576   68.7671   65.4022 H   0  0  0  0  0  0  0  0  0  0  0  0
    5.1780   70.1300   67.8122 H   0  0  0  0  0  0  0  0  0  0  0  0
    6.6164   70.2173   65.7786 H   0  0  0  0  0  0  0  0  0  0  0  0
    5.8111   67.4690   63.2577 H   0  0  0  0  0  0  0  0  0  0  0  0
    4.8836   68.2185   61.9143 H   0  0  0  0  0  0  0  0  0  0  0  0
    6.6786   68.2873   61.9143 H   0  0  0  0  0  0  0  0  0  0  0  0
  2  1  2  0
  3  1  2  0
  4  1  1  0
  5  4  1  0
  6  5  2  0
  7  5  1  0
  8  7  1  0
  9  8  1  0
 10  9  2  0
 11 10  1  0
 12 11  2  0
 13 12  1  0
 14  9  1  0
 14 13  2  0
 15  1  1  0
 16 15  1  0
 17 16  1  0
 19 18  2  0
 20 19  1  0
 21 20  2  0
 21 16  1  0
 22 21  1  0
 23 22  2  0
 23 18  1  0
 25 24  1  0
 25 18  1  0
  4 26  1  0
  8 27  1  0
  8 28  1  0
 10 29  1  0
 11 30  1  0
 12 31  1  0
 13 32  1  0
 14 33  1  0
 15 34  1  0
 16 35  1  1
 17 36  1  0
 17 37  1  0
 17 38  1  0
 19 39  1  0
 20 40  1  0
 22 41  1  0
 23 42  1  0
 24 43  1  0
 24 44  1  0
 24 45  1  0
M  END
>  <score>  (5) 
-8.902

$$$$
=
     RDKit          3D

 45 46  0  0  0  0  0  0  0  0999 V2000
    0.3850   67.2270   68.1560 S   0  0  0  0  0  6  0  0  0  0  0  0
    0.3190   68.6580   68.3230 O   0  0  0  0  0  0  0  0  0  0  0  0
   -0.7740   66.4550   67.7840 O   0  0  0  0  0  0  0  0  0  0  0  0
    1.5330   66.9360   67.0180 N   0  0  0  0  0  0  0  0  0  0  0  0
    1.5040   67.5050   65.7530 C   0  0  0  0  0  0  0  0  0  0  0  0
    0.4870   67.9100   65.2100 O   0  0  0  0  0  0  0  0  0  0  0  0
    2.7380   67.5180   65.2020 O   0  0  0  0  0  0  0  0  0  0  0  0
    3.1700   68.8180   64.7950 C   0  0  0  0  0  0  0  0  0  0  0  0
    4.0360   69.3770   65.8920 C   0  0  0  0  0  0  0  0  0  0  0  0
    3.4780   69.7390   67.1270 C   0  0  0  0  0  0  0  0  0  0  0  0
    4.2800   70.2750   68.1360 C   0  0  0  0  0  0  0  0  0  0  0  0
    5.6430   70.4630   67.9190 C   0  0  0  0  0  0  0  0  0  0  0  0
    6.2060   70.1180   66.6910 C   0  0  0  0  0  0  0  0  0  0  0  0
    5.4070   69.5810   65.6810 C   0  0  0  0  0  0  0  0  0  0  0  0
    1.0350   66.5490   69.5130 N   0  0  0  0  0  0  0  0  0  0  0  0
    0.3130   65.5280   70.2760 C   0  0  2  0  0  0  0  0  0  0  0  0
   -0.2680   66.0840   71.5770 C   0  0  0  0  0  0  0  0  0  0  0  0
    2.9820   62.1890   71.0730 C   0  0  0  0  0  0  0  0  0  0  0  0
    3.4660   63.3810   70.5340 C   0  0  0  0  0  0  0  0  0  0  0  0
    2.6060   64.4530   70.2790 C   0  0  0  0  0  0  0  0  0  0  0  0
    1.2350   64.3480   70.5510 C   0  0  0  0  0  0  0  0  0  0  0  0
    0.7560   63.1490   71.1040 C   0  0  0  0  0  0  0  0  0  0  0  0
    1.6220   62.0770   71.3610 C   0  0  0  0  0  0  0  0  0  0  0  0
    5.2550   61.6690   71.5340 C   0  0  0  0  0  0  0  0  0  0  0  0
    3.9290   61.2240   71.2730 O   0  0  0  0  0  0  0  0  0  0  0  0
    2.3098   66.3022   67.2542 H   0  0  0  0  0  0  0  0  0  0  0  0
    3.7478   68.7456   63.8618 H   0  0  0  0  0  0  0  0  0  0  0  0
    2.3046   69.4729   64.6159 H   0  0  0  0  0  0  0  0  0  0  0  0
    2.4009   69.5995   67.3016 H   0  0  0  0  0  0  0  0  0  0  0  0
    3.8350   70.5493   69.1038 H   0  0  0  0  0  0  0  0  0  0  0  0
    6.2745   70.8832   68.7156 H   0  0  0  0  0  0  0  0  0  0  0  0
    7.2817   70.2694   66.5182 H   0  0  0  0  0  0  0  0  0  0  0  0
    5.8559   69.3158   64.7124 H   0  0  0  0  0  0  0  0  0  0  0  0
    1.9272   66.1216   69.2262 H   0  0  0  0  0  0  0  0  0  0  0  0
   -0.5402   65.1890   69.6700 H   0  0  0  0  0  0  0  0  0  0  0  0
    0.2301   65.6074   72.4342 H   0  0  0  0  0  0  0  0  0  0  0  0
   -0.1050   67.1711   71.6163 H   0  0  0  0  0  0  0  0  0  0  0  0
   -1.3469   65.8734   71.6163 H   0  0  0  0  0  0  0  0  0  0  0  0
    4.5378   63.4786   70.3068 H   0  0  0  0  0  0  0  0  0  0  0  0
    3.0088   65.3874   69.8611 H   0  0  0  0  0  0  0  0  0  0  0  0
   -0.3141   63.0497   71.3388 H   0  0  0  0  0  0  0  0  0  0  0  0
    1.2276   61.1446   71.7912 H   0  0  0  0  0  0  0  0  0  0  0  0
    5.4164   61.7231   72.6208 H   0  0  0  0  0  0  0  0  0  0  0  0
    5.9726   60.9625   71.0915 H   0  0  0  0  0  0  0  0  0  0  0  0
    5.4011   62.6654   71.0915 H   0  0  0  0  0  0  0  0  0  0  0  0
  2  1  2  0
  3  1  2  0
  4  1  1  0
  5  4  1  0
  6  5  2  0
  7  5  1  0
  8  7  1  0
  9  8  1  0
 10  9  2  0
 11 10  1  0
 12 11  2  0
 13 12  1  0
 14  9  1  0
 14 13  2  0
 15  1  1  0
 16 15  1  0
 17 16  1  0
 19 18  2  0
 20 19  1  0
 21 20  2  0
 21 16  1  0
 22 21  1  0
 23 22  2  0
 23 18  1  0
 25 24  1  0
 25 18  1  0
  4 26  1  0
  8 27  1  0
  8 28  1  0
 10 29  1  0
 11 30  1  0
 12 31  1  0
 13 32  1  0
 14 33  1  0
 15 34  1  0
 16 35  1  6
 17 36  1  0
 17 37  1  0
 17 38  1  0
 19 39  1  0
 20 40  1  0
 22 41  1  0
 23 42  1  0
 24 43  1  0
 24 44  1  0
 24 45  1  0
M  END
>  <score>  (6) 
-8.736

$$$$
=
     RDKit          3D

 45 46  0  0  0  0  0  0  0  0999 V2000
    0.3850   67.8100   65.1360 S   0  0  0  0  0  6  0  0  0  0  0  0
   -0.5390   68.3840   64.1910 O   0  0  0  0  0  0  0  0  0  0  0  0
   -0.0530   66.9060   66.1700 O   0  0  0  0  0  0  0  0  0  0  0  0
    1.5230   67.0120   64.2590 N   0  0  0  0  0  0  0  0  0  0  0  0
    2.3890   66.0820   64.8160 C   0  0  0  0  0  0  0  0  0  0  0  0
    2.6950   66.0560   65.9980 O   0  0  0  0  0  0  0  0  0  0  0  0
    2.8650   65.2400   63.8700 O   0  0  0  0  0  0  0  0  0  0  0  0
    4.2800   65.3210   63.6930 C   0  0  0  0  0  0  0  0  0  0  0  0
    4.6020   66.7080   63.2010 C   0  0  0  0  0  0  0  0  0  0  0  0
    5.4140   67.5630   63.9610 C   0  0  0  0  0  0  0  0  0  0  0  0
    5.6930   68.8550   63.5130 C   0  0  0  0  0  0  0  0  0  0  0  0
    5.1600   69.3070   62.3080 C   0  0  0  0  0  0  0  0  0  0  0  0
    4.3420   68.4700   61.5510 C   0  0  0  0  0  0  0  0  0  0  0  0
    4.0610   67.1780   61.9970 C   0  0  0  0  0  0  0  0  0  0  0  0
    1.2560   69.0170   65.8500 N   0  0  0  0  0  0  0  0  0  0  0  0
    1.4500   69.0610   67.3020 C   0  0  2  0  0  0  0  0  0  0  0  0
    0.3810   69.9020   68.0000 C   0  0  0  0  0  0  0  0  0  0  0  0
    5.4410   70.5630   68.1490 C   0  0  0  0  0  0  0  0  0  0  0  0
    5.1450   69.9660   66.9230 C   0  0  0  0  0  0  0  0  0  0  0  0
    3.8620   69.4840   66.6540 C   0  0  0  0  0  0  0  0  0  0  0  0
    2.8460   69.5820   67.6140 C   0  0  0  0  0  0  0  0  0  0  0  0
    3.1480   70.1940   68.8430 C   0  0  0  0  0  0  0  0  0  0  0  0
    4.4360   70.6780   69.1080 C   0  0  0  0  0  0  0  0  0  0  0  0
    7.3510   70.7880   69.5460 C   0  0  0  0  0  0  0  0  0  0  0  0
    6.7330   70.9900   68.2810 O   0  0  0  0  0  0  0  0  0  0  0  0
    1.5966   67.2111   63.2511 H   0  0  0  0  0  0  0  0  0  0  0  0
    4.7885   65.1359   64.6507 H   0  0  0  0  0  0  0  0  0  0  0  0
    4.6212   64.5667   62.9687 H   0  0  0  0  0  0  0  0  0  0  0  0
    5.8333   67.2130   64.9158 H   0  0  0  0  0  0  0  0  0  0  0  0
    6.3348   69.5174   64.1124 H   0  0  0  0  0  0  0  0  0  0  0  0
    5.3846   70.3240   61.9540 H   0  0  0  0  0  0  0  0  0  0  0  0
    3.9177   68.8281   60.6014 H   0  0  0  0  0  0  0  0  0  0  0  0
    3.4099   66.5236   61.3989 H   0  0  0  0  0  0  0  0  0  0  0  0
    2.1965   68.9843   65.4314 H   0  0  0  0  0  0  0  0  0  0  0  0
    1.3487   68.0377   67.6927 H   0  0  0  0  0  0  0  0  0  0  0  0
    0.4968   69.8109   69.0901 H   0  0  0  0  0  0  0  0  0  0  0  0
    0.4939   70.9560   67.7061 H   0  0  0  0  0  0  0  0  0  0  0  0
   -0.6168   69.5442   67.7061 H   0  0  0  0  0  0  0  0  0  0  0  0
    5.9314   69.8739   66.1594 H   0  0  0  0  0  0  0  0  0  0  0  0
    3.6470   69.0228   65.6788 H   0  0  0  0  0  0  0  0  0  0  0  0
    2.3628   70.2943   69.6068 H   0  0  0  0  0  0  0  0  0  0  0  0
    4.6549   71.1507   70.0768 H   0  0  0  0  0  0  0  0  0  0  0  0
    6.6336   71.0225   70.3462 H   0  0  0  0  0  0  0  0  0  0  0  0
    7.6697   69.7389   69.6351 H   0  0  0  0  0  0  0  0  0  0  0  0
    8.2277   71.4463   69.6351 H   0  0  0  0  0  0  0  0  0  0  0  0
  2  1  2  0
  3  1  2  0
  4  1  1  0
  5  4  1  0
  6  5  2  0
  7  5  1  0
  8  7  1  0
  9  8  1  0
 10  9  2  0
 11 10  1  0
 12 11  2  0
 13 12  1  0
 14  9  1  0
 14 13  2  0
 15  1  1  0
 16 15  1  0
 17 16  1  0
 19 18  2  0
 20 19  1  0
 21 20  2  0
 21 16  1  0
 22 21  1  0
 23 22  2  0
 23 18  1  0
 25 24  1  0
 25 18  1  0
  4 26  1  0
  8 27  1  0
  8 28  1  0
 10 29  1  0
 11 30  1  0
 12 31  1  0
 13 32  1  0
 14 33  1  0
 15 34  1  0
 16 35  1  1
 17 36  1  0
 17 37  1  0
 17 38  1  0
 19 39  1  0
 20 40  1  0
 22 41  1  0
 23 42  1  0
 24 43  1  0
 24 44  1  0
 24 45  1  0
M  END
>  <score>  (7) 
-8.38

$$$$
=
     RDKit          3D

 45 46  0  0  0  0  0  0  0  0999 V2000
    2.4400   58.3730   74.1830 S   0  0  0  0  0  6  0  0  0  0  0  0
    2.2930   56.9970   74.5860 O   0  0  0  0  0  0  0  0  0  0  0  0
    2.8370   59.3960   75.1170 O   0  0  0  0  0  0  0  0  0  0  0  0
    3.5410   58.3920   72.9630 N   0  0  0  0  0  0  0  0  0  0  0  0
    3.2280   58.0350   71.6590 C   0  0  0  0  0  0  0  0  0  0  0  0
    2.2980   57.3040   71.3560 O   0  0  0  0  0  0  0  0  0  0  0  0
    4.1070   58.5780   70.7870 O   0  0  0  0  0  0  0  0  0  0  0  0
    3.4900   59.3690   69.7690 C   0  0  0  0  0  0  0  0  0  0  0  0
    3.9820   60.7830   69.9280 C   0  0  0  0  0  0  0  0  0  0  0  0
    4.9150   61.1060   70.9240 C   0  0  0  0  0  0  0  0  0  0  0  0
    5.3540   62.4210   71.0810 C   0  0  0  0  0  0  0  0  0  0  0  0
    4.8610   63.4270   70.2530 C   0  0  0  0  0  0  0  0  0  0  0  0
    3.9240   63.1190   69.2680 C   0  0  0  0  0  0  0  0  0  0  0  0
    3.4830   61.8040   69.1080 C   0  0  0  0  0  0  0  0  0  0  0  0
    1.0570   58.8730   73.4340 N   0  0  0  0  0  0  0  0  0  0  0  0
    0.2500   59.9690   73.9780 C   0  0  2  0  0  0  0  0  0  0  0  0
   -1.2400   59.6280   74.0050 C   0  0  0  0  0  0  0  0  0  0  0  0
    1.0230   63.5750   71.6750 C   0  0  0  0  0  0  0  0  0  0  0  0
    2.0380   62.9640   72.4130 C   0  0  0  0  0  0  0  0  0  0  0  0
    1.7870   61.8060   73.1520 C   0  0  0  0  0  0  0  0  0  0  0  0
    0.5060   61.2370   73.1760 C   0  0  0  0  0  0  0  0  0  0  0  0
   -0.5080   61.8520   72.4210 C   0  0  0  0  0  0  0  0  0  0  0  0
   -0.2520   63.0120   71.6790 C   0  0  0  0  0  0  0  0  0  0  0  0
    0.3690   65.5760   70.5720 C   0  0  0  0  0  0  0  0  0  0  0  0
    1.4050   64.7000   70.9990 O   0  0  0  0  0  0  0  0  0  0  0  0
    4.5062   58.6818   73.1757 H   0  0  0  0  0  0  0  0  0  0  0  0
    3.7675   58.9850   68.7763 H   0  0  0  0  0  0  0  0  0  0  0  0
    2.3945   59.3293   69.8607 H   0  0  0  0  0  0  0  0  0  0  0  0
    5.3031   60.3176   71.5856 H   0  0  0  0  0  0  0  0  0  0  0  0
    6.0912   62.6640   71.8605 H   0  0  0  0  0  0  0  0  0  0  0  0
    5.2105   64.4627   70.3763 H   0  0  0  0  0  0  0  0  0  0  0  0
    3.5315   63.9131   68.6158 H   0  0  0  0  0  0  0  0  0  0  0  0
    2.7389   61.5678   68.3331 H   0  0  0  0  0  0  0  0  0  0  0  0
    1.3273   59.1552   72.4810 H   0  0  0  0  0  0  0  0  0  0  0  0
    0.5536   60.1324   75.0226 H   0  0  0  0  0  0  0  0  0  0  0  0
   -1.5795   59.5503   75.0484 H   0  0  0  0  0  0  0  0  0  0  0  0
   -1.8067   60.4197   73.4930 H   0  0  0  0  0  0  0  0  0  0  0  0
   -1.4059   58.6687   73.4930 H   0  0  0  0  0  0  0  0  0  0  0  0
    3.0479   63.4000   72.4125 H   0  0  0  0  0  0  0  0  0  0  0  0
    2.6025   61.3356   73.7209 H   0  0  0  0  0  0  0  0  0  0  0  0
   -1.5177   61.4156   72.4129 H   0  0  0  0  0  0  0  0  0  0  0  0
   -1.0598   63.4802   71.0975 H   0  0  0  0  0  0  0  0  0  0  0  0
   -0.1358   66.0029   71.4512 H   0  0  0  0  0  0  0  0  0  0  0  0
    0.8007   66.3871   69.9673 H   0  0  0  0  0  0  0  0  0  0  0  0
   -0.3591   65.0155   69.9673 H   0  0  0  0  0  0  0  0  0  0  0  0
  2  1  2  0
  3  1  2  0
  4  1  1  0
  5  4  1  0
  6  5  2  0
  7  5  1  0
  8  7  1  0
  9  8  1  0
 10  9  2  0
 11 10  1  0
 12 11  2  0
 13 12  1  0
 14  9  1  0
 14 13  2  0
 15  1  1  0
 16 15  1  0
 17 16  1  0
 19 18  2  0
 20 19  1  0
 21 20  2  0
 21 16  1  0
 22 21  1  0
 23 22  2  0
 23 18  1  0
 25 24  1  0
 25 18  1  0
  4 26  1  0
  8 27  1  0
  8 28  1  0
 10 29  1  0
 11 30  1  0
 12 31  1  0
 13 32  1  0
 14 33  1  0
 15 34  1  0
 16 35  1  1
 17 36  1  0
 17 37  1  0
 17 38  1  0
 19 39  1  0
 20 40  1  0
 22 41  1  0
 23 42  1  0
 24 43  1  0
 24 44  1  0
 24 45  1  0
M  END
>  <score>  (8) 
-8.127

$$$$
=
     RDKit          3D

 45 46  0  0  0  0  0  0  0  0999 V2000
    0.5030   64.1950   70.6030 S   0  0  0  0  0  6  0  0  0  0  0  0
    0.7110   64.8550   71.8670 O   0  0  0  0  0  0  0  0  0  0  0  0
   -0.4400   63.1140   70.4600 O   0  0  0  0  0  0  0  0  0  0  0  0
    0.0580   65.3570   69.5300 N   0  0  0  0  0  0  0  0  0  0  0  0
    0.8490   66.4590   69.2400 C   0  0  0  0  0  0  0  0  0  0  0  0
    1.7000   66.9060   69.9930 O   0  0  0  0  0  0  0  0  0  0  0  0
    0.5260   66.9800   68.0350 O   0  0  0  0  0  0  0  0  0  0  0  0
    0.5890   68.4070   67.9920 C   0  0  0  0  0  0  0  0  0  0  0  0
    1.8360   68.7870   67.2380 C   0  0  0  0  0  0  0  0  0  0  0  0
    2.0060   68.4010   65.9000 C   0  0  0  0  0  0  0  0  0  0  0  0
    3.1710   68.7380   65.2100 C   0  0  0  0  0  0  0  0  0  0  0  0
    4.1800   69.4540   65.8500 C   0  0  0  0  0  0  0  0  0  0  0  0
    4.0280   69.8310   67.1820 C   0  0  0  0  0  0  0  0  0  0  0  0
    2.8630   69.4960   67.8750 C   0  0  0  0  0  0  0  0  0  0  0  0
    1.9560   63.6870   70.0070 N   0  0  0  0  0  0  0  0  0  0  0  0
    3.0210   63.2140   70.8960 C   0  0  2  0  0  0  0  0  0  0  0  0
    4.4040   63.6700   70.4300 C   0  0  0  0  0  0  0  0  0  0  0  0
    2.7870   58.8860   71.2330 C   0  0  0  0  0  0  0  0  0  0  0  0
    2.1190   59.7120   72.1370 C   0  0  0  0  0  0  0  0  0  0  0  0
    2.1960   61.1030   72.0270 C   0  0  0  0  0  0  0  0  0  0  0  0
    2.9550   61.6980   71.0090 C   0  0  0  0  0  0  0  0  0  0  0  0
    3.6160   60.8590   70.0960 C   0  0  0  0  0  0  0  0  0  0  0  0
    3.5350   59.4650   70.2080 C   0  0  0  0  0  0  0  0  0  0  0  0
    1.8950   57.1700   72.6150 C   0  0  0  0  0  0  0  0  0  0  0  0
    2.6270   57.5460   71.4550 O   0  0  0  0  0  0  0  0  0  0  0  0
   -0.8491   65.2629   69.0512 H   0  0  0  0  0  0  0  0  0  0  0  0
   -0.2970   68.8059   67.4763 H   0  0  0  0  0  0  0  0  0  0  0  0
    0.6123   68.8228   69.0101 H   0  0  0  0  0  0  0  0  0  0  0  0
    1.2158   67.8290   65.3916 H   0  0  0  0  0  0  0  0  0  0  0  0
    3.2929   68.4377   64.1588 H   0  0  0  0  0  0  0  0  0  0  0  0
    5.0964   69.7215   65.3036 H   0  0  0  0  0  0  0  0  0  0  0  0
    4.8264   70.3931   67.6886 H   0  0  0  0  0  0  0  0  0  0  0  0
    2.7507   69.7909   68.9288 H   0  0  0  0  0  0  0  0  0  0  0  0
    1.7508   62.9121   69.3602 H   0  0  0  0  0  0  0  0  0  0  0  0
    2.8614   63.6593   71.8891 H   0  0  0  0  0  0  0  0  0  0  0  0
    5.0358   63.8783   71.3060 H   0  0  0  0  0  0  0  0  0  0  0  0
    4.8668   62.8769   69.8244 H   0  0  0  0  0  0  0  0  0  0  0  0
    4.3043   64.5828   69.8244 H   0  0  0  0  0  0  0  0  0  0  0  0
    1.5244   59.2630   72.9463 H   0  0  0  0  0  0  0  0  0  0  0  0
    1.6562   61.7371   72.7457 H   0  0  0  0  0  0  0  0  0  0  0  0
    4.2060   61.3036   69.2810 H   0  0  0  0  0  0  0  0  0  0  0  0
    4.0628   58.8252   69.4855 H   0  0  0  0  0  0  0  0  0  0  0  0
    2.4587   57.4595   73.5141 H   0  0  0  0  0  0  0  0  0  0  0  0
    0.9197   57.6787   72.6140 H   0  0  0  0  0  0  0  0  0  0  0  0
    1.7405   56.0809   72.6140 H   0  0  0  0  0  0  0  0  0  0  0  0
  2  1  2  0
  3  1  2  0
  4  1  1  0
  5  4  1  0
  6  5  2  0
  7  5  1  0
  8  7  1  0
  9  8  1  0
 10  9  2  0
 11 10  1  0
 12 11  2  0
 13 12  1  0
 14  9  1  0
 14 13  2  0
 15  1  1  0
 16 15  1  0
 17 16  1  0
 19 18  2  0
 20 19  1  0
 21 20  2  0
 21 16  1  0
 22 21  1  0
 23 22  2  0
 23 18  1  0
 25 24  1  0
 25 18  1  0
  4 26  1  0
  8 27  1  0
  8 28  1  0
 10 29  1  0
 11 30  1  0
 12 31  1  0
 13 32  1  0
 14 33  1  0
 15 34  1  0
 16 35  1  1
 17 36  1  0
 17 37  1  0
 17 38  1  0
 19 39  1  0
 20 40  1  0
 22 41  1  0
 23 42  1  0
 24 43  1  0
 24 44  1  0
 24 45  1  0
M  END
>  <score>  (9) 
-8.012

$$$$
