=
     RDKit          3D

 26 28  0  0  0  0  0  0  0  0999 V2000
    1.7570   68.7090   67.3280 O   0  0  0  0  0  0  0  0  0  0  0  0
    2.3270   68.8030   66.2600 C   0  0  0  0  0  0  0  0  0  0  0  0
    1.6690   68.4320   64.9180 C   0  0  0  0  0  0  0  0  0  0  0  0
    0.5470   68.0140   64.7420 O   0  0  0  0  0  0  0  0  0  0  0  0
    2.6770   68.6770   63.8940 C   0  0  0  0  0  0  0  0  0  0  0  0
    3.8240   69.1500   64.5330 C   0  0  0  0  0  0  0  0  0  0  0  0
    3.6060   69.2640   65.9290 N   0  0  0  0  0  0  0  0  0  0  0  0
    4.9690   69.3450   63.7760 C   0  0  0  0  0  0  0  0  0  0  0  0
    4.9100   69.1290   62.3900 C   0  0  0  0  0  0  0  0  0  0  0  0
    3.7270   68.6950   61.7710 C   0  0  0  0  0  0  0  0  0  0  0  0
    2.5870   68.4510   62.5320 C   0  0  0  0  0  0  0  0  0  0  0  0
    4.5390   69.7810   66.8610 C   0  0  0  0  0  0  0  0  0  0  0  0
    4.1090   70.1950   68.1320 C   0  0  0  0  0  0  0  0  0  0  0  0
    5.0070   70.7180   69.0670 C   0  0  0  0  0  0  0  0  0  0  0  0
    6.3520   70.8560   68.7410 C   0  0  0  0  0  0  0  0  0  0  0  0
    6.7940   70.4830   67.4760 C   0  0  0  0  0  0  0  0  0  0  0  0
    5.8930   69.9570   66.5430 C   0  0  0  0  0  0  0  0  0  0  0  0
    5.9076   69.6635   64.2531 H   0  0  0  0  0  0  0  0  0  0  0  0
    5.8072   69.3030   61.7778 H   0  0  0  0  0  0  0  0  0  0  0  0
    3.7007   68.5473   60.6813 H   0  0  0  0  0  0  0  0  0  0  0  0
    1.6547   68.0938   62.0702 H   0  0  0  0  0  0  0  0  0  0  0  0
    3.0451   70.1061   68.3970 H   0  0  0  0  0  0  0  0  0  0  0  0
    4.6493   71.0209   70.0621 H   0  0  0  0  0  0  0  0  0  0  0  0
    7.0619   71.2577   69.4791 H   0  0  0  0  0  0  0  0  0  0  0  0
    7.8543   70.6017   67.2082 H   0  0  0  0  0  0  0  0  0  0  0  0
    6.2537   69.6767   65.5423 H   0  0  0  0  0  0  0  0  0  0  0  0
  2  1  2  0
  3  2  1  0
  4  3  2  0
  5  3  1  0
  6  5  2  0
  7  6  1  0
  7  2  1  0
  8  6  1  0
  9  8  2  0
 10  9  1  0
 11 10  2  0
 11  5  1  0
 12  7  1  0
 13 12  2  0
 14 13  1  0
 15 14  2  0
 16 15  1  0
 17 12  1  0
 17 16  2  0
  8 18  1  0
  9 19  1  0
 10 20  1  0
 11 21  1  0
 13 22  1  0
 14 23  1  0
 15 24  1  0
 16 25  1  0
 17 26  1  0
M  END
>  <score>  (1) 
-10.471

$$$$
=
     RDKit          3D

 26 28  0  0  0  0  0  0  0  0999 V2000
    2.0310   67.5750   64.1180 O   0  0  0  0  0  0  0  0  0  0  0  0
    2.4200   68.2050   65.0810 C   0  0  0  0  0  0  0  0  0  0  0  0
    3.8330   68.8090   65.1790 C   0  0  0  0  0  0  0  0  0  0  0  0
    4.7170   68.7460   64.3540 O   0  0  0  0  0  0  0  0  0  0  0  0
    3.9000   69.4680   66.4760 C   0  0  0  0  0  0  0  0  0  0  0  0
    2.6660   69.2950   67.1040 C   0  0  0  0  0  0  0  0  0  0  0  0
    1.7740   68.5830   66.2630 N   0  0  0  0  0  0  0  0  0  0  0  0
    2.5200   69.7360   68.4110 C   0  0  0  0  0  0  0  0  0  0  0  0
    3.5940   70.4020   69.0240 C   0  0  0  0  0  0  0  0  0  0  0  0
    4.8090   70.5990   68.3490 C   0  0  0  0  0  0  0  0  0  0  0  0
    4.9780   70.1160   67.0540 C   0  0  0  0  0  0  0  0  0  0  0  0
    0.4180   68.3000   66.5630 C   0  0  0  0  0  0  0  0  0  0  0  0
    0.0970   67.3020   67.4960 C   0  0  0  0  0  0  0  0  0  0  0  0
   -1.2320   66.9970   67.8020 C   0  0  0  0  0  0  0  0  0  0  0  0
   -2.2680   67.6720   67.1650 C   0  0  0  0  0  0  0  0  0  0  0  0
   -1.9730   68.6420   66.2140 C   0  0  0  0  0  0  0  0  0  0  0  0
   -0.6410   68.9480   65.9110 C   0  0  0  0  0  0  0  0  0  0  0  0
    1.5803   69.5672   68.9574 H   0  0  0  0  0  0  0  0  0  0  0  0
    3.4809   70.7762   70.0522 H   0  0  0  0  0  0  0  0  0  0  0  0
    5.6305   71.1368   68.8449 H   0  0  0  0  0  0  0  0  0  0  0  0
    5.9275   70.2439   66.5135 H   0  0  0  0  0  0  0  0  0  0  0  0
    0.9065   66.7496   67.9957 H   0  0  0  0  0  0  0  0  0  0  0  0
   -1.4593   66.2214   68.5482 H   0  0  0  0  0  0  0  0  0  0  0  0
   -3.3144   67.4397   67.4123 H   0  0  0  0  0  0  0  0  0  0  0  0
   -2.7883   69.1705   65.6982 H   0  0  0  0  0  0  0  0  0  0  0  0
   -0.4213   69.7097   65.1485 H   0  0  0  0  0  0  0  0  0  0  0  0
  2  1  2  0
  3  2  1  0
  4  3  2  0
  5  3  1  0
  6  5  2  0
  7  6  1  0
  7  2  1  0
  8  6  1  0
  9  8  2  0
 10  9  1  0
 11 10  2  0
 11  5  1  0
 12  7  1  0
 13 12  2  0
 14 13  1  0
 15 14  2  0
 16 15  1  0
 17 12  1  0
 17 16  2  0
  8 18  1  0
  9 19  1  0
 10 20  1  0
 11 21  1  0
 13 22  1  0
 14 23  1  0
 15 24  1  0
 16 25  1  0
 17 26  1  0
M  END
>  <score>  (2) 
-10.329

$$$$
=
     RDKit          3D

 26 28  0  0  0  0  0  0  0  0999 V2000
    0.1160   67.8670   62.5140 O   0  0  0  0  0  0  0  0  0  0  0  0
    1.0250   68.2310   63.2320 C   0  0  0  0  0  0  0  0  0  0  0  0
    2.4150   68.6260   62.6990 C   0  0  0  0  0  0  0  0  0  0  0  0
    2.7850   68.6290   61.5470 O   0  0  0  0  0  0  0  0  0  0  0  0
    3.2060   68.9880   63.8680 C   0  0  0  0  0  0  0  0  0  0  0  0
    2.3950   68.8380   64.9930 C   0  0  0  0  0  0  0  0  0  0  0  0
    1.0910   68.4290   64.6160 N   0  0  0  0  0  0  0  0  0  0  0  0
    2.9620   69.0110   66.2460 C   0  0  0  0  0  0  0  0  0  0  0  0
    4.3090   69.4010   66.3320 C   0  0  0  0  0  0  0  0  0  0  0  0
    5.0870   69.5860   65.1780 C   0  0  0  0  0  0  0  0  0  0  0  0
    4.5370   69.3660   63.9180 C   0  0  0  0  0  0  0  0  0  0  0  0
    0.0000   68.2560   65.5040 C   0  0  0  0  0  0  0  0  0  0  0  0
    0.0910   67.3350   66.5580 C   0  0  0  0  0  0  0  0  0  0  0  0
   -0.9750   67.1380   67.4420 C   0  0  0  0  0  0  0  0  0  0  0  0
   -2.1600   67.8460   67.2760 C   0  0  0  0  0  0  0  0  0  0  0  0
   -2.2830   68.7400   66.2190 C   0  0  0  0  0  0  0  0  0  0  0  0
   -1.2140   68.9380   65.3370 C   0  0  0  0  0  0  0  0  0  0  0  0
    2.3678   68.8459   67.1569 H   0  0  0  0  0  0  0  0  0  0  0  0
    4.7621   69.5643   67.3210 H   0  0  0  0  0  0  0  0  0  0  0  0
    6.1354   69.9061   65.2697 H   0  0  0  0  0  0  0  0  0  0  0  0
    5.1340   69.4872   63.0021 H   0  0  0  0  0  0  0  0  0  0  0  0
    1.0174   66.7572   66.6918 H   0  0  0  0  0  0  0  0  0  0  0  0
   -0.8755   66.4212   68.2705 H   0  0  0  0  0  0  0  0  0  0  0  0
   -2.9950   67.6995   67.9769 H   0  0  0  0  0  0  0  0  0  0  0  0
   -3.2227   69.2934   66.0751 H   0  0  0  0  0  0  0  0  0  0  0  0
   -1.3282   69.6407   64.4984 H   0  0  0  0  0  0  0  0  0  0  0  0
  2  1  2  0
  3  2  1  0
  4  3  2  0
  5  3  1  0
  6  5  2  0
  7  6  1  0
  7  2  1  0
  8  6  1  0
  9  8  2  0
 10  9  1  0
 11 10  2  0
 11  5  1  0
 12  7  1  0
 13 12  2  0
 14 13  1  0
 15 14  2  0
 16 15  1  0
 17 12  1  0
 17 16  2  0
  8 18  1  0
  9 19  1  0
 10 20  1  0
 11 21  1  0
 13 22  1  0
 14 23  1  0
 15 24  1  0
 16 25  1  0
 17 26  1  0
M  END
>  <score>  (3) 
-10.253

$$$$
=
     RDKit          3D

 26 28  0  0  0  0  0  0  0  0999 V2000
    2.7930   70.1360   69.5090 O   0  0  0  0  0  0  0  0  0  0  0  0
    3.1100   69.8750   68.3650 C   0  0  0  0  0  0  0  0  0  0  0  0
    4.4840   70.2340   67.7690 C   0  0  0  0  0  0  0  0  0  0  0  0
    5.4000   70.7990   68.3230 O   0  0  0  0  0  0  0  0  0  0  0  0
    4.4590   69.7630   66.3900 C   0  0  0  0  0  0  0  0  0  0  0  0
    3.2130   69.1770   66.1640 C   0  0  0  0  0  0  0  0  0  0  0  0
    2.4280   69.2050   67.3440 N   0  0  0  0  0  0  0  0  0  0  0  0
    2.9030   68.7560   64.8800 C   0  0  0  0  0  0  0  0  0  0  0  0
    3.8780   68.8690   63.8760 C   0  0  0  0  0  0  0  0  0  0  0  0
    5.1400   69.4250   64.1460 C   0  0  0  0  0  0  0  0  0  0  0  0
    5.4400   69.8940   65.4220 C   0  0  0  0  0  0  0  0  0  0  0  0
    1.1410   68.6290   67.4820 C   0  0  0  0  0  0  0  0  0  0  0  0
    0.9670   67.4710   68.2550 C   0  0  0  0  0  0  0  0  0  0  0  0
   -0.2910   66.8770   68.4000 C   0  0  0  0  0  0  0  0  0  0  0  0
   -1.3970   67.4210   67.7560 C   0  0  0  0  0  0  0  0  0  0  0  0
   -1.2420   68.5490   66.9590 C   0  0  0  0  0  0  0  0  0  0  0  0
    0.0180   69.1430   66.8180 C   0  0  0  0  0  0  0  0  0  0  0  0
    1.9104   68.3406   64.6517 H   0  0  0  0  0  0  0  0  0  0  0  0
    3.6498   68.5159   62.8595 H   0  0  0  0  0  0  0  0  0  0  0  0
    5.8930   69.4898   63.3468 H   0  0  0  0  0  0  0  0  0  0  0  0
    6.4148   70.3492   65.6513 H   0  0  0  0  0  0  0  0  0  0  0  0
    1.8367   67.0216   68.7567 H   0  0  0  0  0  0  0  0  0  0  0  0
   -0.4056   65.9785   69.0242 H   0  0  0  0  0  0  0  0  0  0  0  0
   -2.3889   66.9611   67.8767 H   0  0  0  0  0  0  0  0  0  0  0  0
   -2.1114   68.9761   66.4377 H   0  0  0  0  0  0  0  0  0  0  0  0
    0.1289   70.0286   66.1750 H   0  0  0  0  0  0  0  0  0  0  0  0
  2  1  2  0
  3  2  1  0
  4  3  2  0
  5  3  1  0
  6  5  2  0
  7  6  1  0
  7  2  1  0
  8  6  1  0
  9  8  2  0
 10  9  1  0
 11 10  2  0
 11  5  1  0
 12  7  1  0
 13 12  2  0
 14 13  1  0
 15 14  2  0
 16 15  1  0
 17 12  1  0
 17 16  2  0
  8 18  1  0
  9 19  1  0
 10 20  1  0
 11 21  1  0
 13 22  1  0
 14 23  1  0
 15 24  1  0
 16 25  1  0
 17 26  1  0
M  END
>  <score>  (4) 
-10.238

$$$$
=
     RDKit          3D

 26 28  0  0  0  0  0  0  0  0999 V2000
    0.4230   67.8640   65.2970 O   0  0  0  0  0  0  0  0  0  0  0  0
    1.3710   68.3710   65.8620 C   0  0  0  0  0  0  0  0  0  0  0  0
    1.2930   68.9490   67.2880 C   0  0  0  0  0  0  0  0  0  0  0  0
    0.3250   68.9810   68.0140 O   0  0  0  0  0  0  0  0  0  0  0  0
    2.6230   69.4640   67.5870 C   0  0  0  0  0  0  0  0  0  0  0  0
    3.4310   69.2250   66.4750 C   0  0  0  0  0  0  0  0  0  0  0  0
    2.7030   68.5420   65.4680 N   0  0  0  0  0  0  0  0  0  0  0  0
    4.7200   69.7330   66.4720 C   0  0  0  0  0  0  0  0  0  0  0  0
    5.1860   70.4040   67.6150 C   0  0  0  0  0  0  0  0  0  0  0  0
    4.3610   70.5890   68.7370 C   0  0  0  0  0  0  0  0  0  0  0  0
    3.0490   70.1230   68.7270 C   0  0  0  0  0  0  0  0  0  0  0  0
    3.2420   68.0830   64.2400 C   0  0  0  0  0  0  0  0  0  0  0  0
    2.9900   68.7880   63.0540 C   0  0  0  0  0  0  0  0  0  0  0  0
    3.5020   68.3510   61.8280 C   0  0  0  0  0  0  0  0  0  0  0  0
    4.2580   67.1860   61.7630 C   0  0  0  0  0  0  0  0  0  0  0  0
    4.4920   66.4540   62.9210 C   0  0  0  0  0  0  0  0  0  0  0  0
    3.9820   66.8950   64.1480 C   0  0  0  0  0  0  0  0  0  0  0  0
    5.3670   69.6131   65.5905 H   0  0  0  0  0  0  0  0  0  0  0  0
    6.2154   70.7915   67.6317 H   0  0  0  0  0  0  0  0  0  0  0  0
    4.7530   71.1038   69.6266 H   0  0  0  0  0  0  0  0  0  0  0  0
    2.3803   70.2721   69.5876 H   0  0  0  0  0  0  0  0  0  0  0  0
    2.3783   69.7016   63.0887 H   0  0  0  0  0  0  0  0  0  0  0  0
    3.3062   68.9301   60.9135 H   0  0  0  0  0  0  0  0  0  0  0  0
    4.6684   66.8457   60.8009 H   0  0  0  0  0  0  0  0  0  0  0  0
    5.0797   65.5254   62.8733 H   0  0  0  0  0  0  0  0  0  0  0  0
    4.1647   66.2999   65.0549 H   0  0  0  0  0  0  0  0  0  0  0  0
  2  1  2  0
  3  2  1  0
  4  3  2  0
  5  3  1  0
  6  5  2  0
  7  6  1  0
  7  2  1  0
  8  6  1  0
  9  8  2  0
 10  9  1  0
 11 10  2  0
 11  5  1  0
 12  7  1  0
 13 12  2  0
 14 13  1  0
 15 14  2  0
 16 15  1  0
 17 12  1  0
 17 16  2  0
  8 18  1  0
  9 19  1  0
 10 20  1  0
 11 21  1  0
 13 22  1  0
 14 23  1  0
 15 24  1  0
 16 25  1  0
 17 26  1  0
M  END
>  <score>  (5) 
-10.214

$$$$
=
     RDKit          3D

 26 28  0  0  0  0  0  0  0  0999 V2000
    5.2550   69.6330   64.1840 O   0  0  0  0  0  0  0  0  0  0  0  0
    4.2510   69.4040   64.8280 C   0  0  0  0  0  0  0  0  0  0  0  0
    2.9680   68.8190   64.2100 C   0  0  0  0  0  0  0  0  0  0  0  0
    2.7820   68.5180   63.0530 O   0  0  0  0  0  0  0  0  0  0  0  0
    2.0100   68.7080   65.3020 C   0  0  0  0  0  0  0  0  0  0  0  0
    2.6330   69.1680   66.4630 C   0  0  0  0  0  0  0  0  0  0  0  0
    3.9740   69.5420   66.1930 N   0  0  0  0  0  0  0  0  0  0  0  0
    1.8800   69.2710   67.6220 C   0  0  0  0  0  0  0  0  0  0  0  0
    0.5430   68.8430   67.6020 C   0  0  0  0  0  0  0  0  0  0  0  0
   -0.0430   68.3430   66.4270 C   0  0  0  0  0  0  0  0  0  0  0  0
    0.6940   68.2820   65.2470 C   0  0  0  0  0  0  0  0  0  0  0  0
    4.9090   69.9830   67.1610 C   0  0  0  0  0  0  0  0  0  0  0  0
    4.4710   70.3830   68.4330 C   0  0  0  0  0  0  0  0  0  0  0  0
    5.3720   70.8310   69.4030 C   0  0  0  0  0  0  0  0  0  0  0  0
    6.7300   70.9060   69.1120 C   0  0  0  0  0  0  0  0  0  0  0  0
    7.1830   70.5460   67.8480 C   0  0  0  0  0  0  0  0  0  0  0  0
    6.2790   70.0950   66.8800 C   0  0  0  0  0  0  0  0  0  0  0  0
    2.3224   69.6811   68.5419 H   0  0  0  0  0  0  0  0  0  0  0  0
   -0.0564   68.9001   68.5226 H   0  0  0  0  0  0  0  0  0  0  0  0
   -1.0876   67.9985   66.4392 H   0  0  0  0  0  0  0  0  0  0  0  0
    0.2496   67.9113   64.3115 H   0  0  0  0  0  0  0  0  0  0  0  0
    3.3978   70.3431   68.6711 H   0  0  0  0  0  0  0  0  0  0  0  0
    5.0066   71.1247   70.3981 H   0  0  0  0  0  0  0  0  0  0  0  0
    7.4416   71.2483   69.8778 H   0  0  0  0  0  0  0  0  0  0  0  0
    8.2543   70.6158   67.6084 H   0  0  0  0  0  0  0  0  0  0  0  0
    6.6492   69.8233   65.8804 H   0  0  0  0  0  0  0  0  0  0  0  0
  2  1  2  0
  3  2  1  0
  4  3  2  0
  5  3  1  0
  6  5  2  0
  7  6  1  0
  7  2  1  0
  8  6  1  0
  9  8  2  0
 10  9  1  0
 11 10  2  0
 11  5  1  0
 12  7  1  0
 13 12  2  0
 14 13  1  0
 15 14  2  0
 16 15  1  0
 17 12  1  0
 17 16  2  0
  8 18  1  0
  9 19  1  0
 10 20  1  0
 11 21  1  0
 13 22  1  0
 14 23  1  0
 15 24  1  0
 16 25  1  0
 17 26  1  0
M  END
>  <score>  (6) 
-9.856

$$$$
=
     RDKit          3D

 26 28  0  0  0  0  0  0  0  0999 V2000
   -0.2720   69.0940   64.7630 O   0  0  0  0  0  0  0  0  0  0  0  0
   -0.0490   68.5200   65.8100 C   0  0  0  0  0  0  0  0  0  0  0  0
   -1.1390   67.8020   66.6270 C   0  0  0  0  0  0  0  0  0  0  0  0
   -2.3150   67.7100   66.3590 O   0  0  0  0  0  0  0  0  0  0  0  0
   -0.4690   67.2590   67.8020 C   0  0  0  0  0  0  0  0  0  0  0  0
    0.8810   67.5990   67.7160 C   0  0  0  0  0  0  0  0  0  0  0  0
    1.1400   68.3110   66.5180 N   0  0  0  0  0  0  0  0  0  0  0  0
    1.7100   67.2930   68.7840 C   0  0  0  0  0  0  0  0  0  0  0  0
    1.1760   66.5900   69.8760 C   0  0  0  0  0  0  0  0  0  0  0  0
   -0.1790   66.2230   69.9120 C   0  0  0  0  0  0  0  0  0  0  0  0
   -1.0280   66.5700   68.8640 C   0  0  0  0  0  0  0  0  0  0  0  0
    2.4190   68.7420   66.0840 C   0  0  0  0  0  0  0  0  0  0  0  0
    3.2660   69.4300   66.9660 C   0  0  0  0  0  0  0  0  0  0  0  0
    4.5280   69.8740   66.5600 C   0  0  0  0  0  0  0  0  0  0  0  0
    4.9590   69.6570   65.2550 C   0  0  0  0  0  0  0  0  0  0  0  0
    4.1220   69.0060   64.3560 C   0  0  0  0  0  0  0  0  0  0  0  0
    2.8600   68.5600   64.7650 C   0  0  0  0  0  0  0  0  0  0  0  0
    2.7675   67.5955   68.7762 H   0  0  0  0  0  0  0  0  0  0  0  0
    1.8308   66.3220   70.7183 H   0  0  0  0  0  0  0  0  0  0  0  0
   -0.5713   65.6593   70.7713 H   0  0  0  0  0  0  0  0  0  0  0  0
   -2.0962   66.3079   68.8797 H   0  0  0  0  0  0  0  0  0  0  0  0
    2.9310   69.6236   67.9957 H   0  0  0  0  0  0  0  0  0  0  0  0
    5.1818   70.3962   67.2740 H   0  0  0  0  0  0  0  0  0  0  0  0
    5.9552   69.9982   64.9368 H   0  0  0  0  0  0  0  0  0  0  0  0
    4.4526   68.8409   63.3199 H   0  0  0  0  0  0  0  0  0  0  0  0
    2.2027   68.0582   64.0396 H   0  0  0  0  0  0  0  0  0  0  0  0
  2  1  2  0
  3  2  1  0
  4  3  2  0
  5  3  1  0
  6  5  2  0
  7  6  1  0
  7  2  1  0
  8  6  1  0
  9  8  2  0
 10  9  1  0
 11 10  2  0
 11  5  1  0
 12  7  1  0
 13 12  2  0
 14 13  1  0
 15 14  2  0
 16 15  1  0
 17 12  1  0
 17 16  2  0
  8 18  1  0
  9 19  1  0
 10 20  1  0
 11 21  1  0
 13 22  1  0
 14 23  1  0
 15 24  1  0
 16 25  1  0
 17 26  1  0
M  END
>  <score>  (7) 
-9.316

$$$$
=
     RDKit          3D

 26 28  0  0  0  0  0  0  0  0999 V2000
    3.9900   58.6220   71.4670 O   0  0  0  0  0  0  0  0  0  0  0  0
    2.9750   59.1710   71.8470 C   0  0  0  0  0  0  0  0  0  0  0  0
    1.9530   58.5000   72.7830 C   0  0  0  0  0  0  0  0  0  0  0  0
    2.0100   57.3860   73.2520 O   0  0  0  0  0  0  0  0  0  0  0  0
    0.8910   59.4770   72.9860 C   0  0  0  0  0  0  0  0  0  0  0  0
    1.2240   60.6220   72.2620 C   0  0  0  0  0  0  0  0  0  0  0  0
    2.4770   60.4590   71.6190 N   0  0  0  0  0  0  0  0  0  0  0  0
    0.3040   61.6580   72.2020 C   0  0  0  0  0  0  0  0  0  0  0  0
   -0.8920   61.5440   72.9300 C   0  0  0  0  0  0  0  0  0  0  0  0
   -1.1770   60.3950   73.6850 C   0  0  0  0  0  0  0  0  0  0  0  0
   -0.2790   59.3320   73.7100 C   0  0  0  0  0  0  0  0  0  0  0  0
    3.1430   61.4550   70.8630 C   0  0  0  0  0  0  0  0  0  0  0  0
    2.8540   61.6140   69.4990 C   0  0  0  0  0  0  0  0  0  0  0  0
    3.5040   62.5830   68.7290 C   0  0  0  0  0  0  0  0  0  0  0  0
    4.4720   63.3990   69.3040 C   0  0  0  0  0  0  0  0  0  0  0  0
    4.7980   63.2360   70.6460 C   0  0  0  0  0  0  0  0  0  0  0  0
    4.1430   62.2680   71.4160 C   0  0  0  0  0  0  0  0  0  0  0  0
    0.5071   62.5528   71.5953 H   0  0  0  0  0  0  0  0  0  0  0  0
   -1.6184   62.3698   72.9082 H   0  0  0  0  0  0  0  0  0  0  0  0
   -2.1135   60.3348   74.2589 H   0  0  0  0  0  0  0  0  0  0  0  0
   -0.4904   58.4158   74.2809 H   0  0  0  0  0  0  0  0  0  0  0  0
    2.1022   60.9643   69.0270 H   0  0  0  0  0  0  0  0  0  0  0  0
    3.2490   62.7002   67.6654 H   0  0  0  0  0  0  0  0  0  0  0  0
    4.9766   64.1685   68.7012 H   0  0  0  0  0  0  0  0  0  0  0  0
    5.5724   63.8693   71.1034 H   0  0  0  0  0  0  0  0  0  0  0  0
    4.4175   62.1427   72.4738 H   0  0  0  0  0  0  0  0  0  0  0  0
  2  1  2  0
  3  2  1  0
  4  3  2  0
  5  3  1  0
  6  5  2  0
  7  6  1  0
  7  2  1  0
  8  6  1  0
  9  8  2  0
 10  9  1  0
 11 10  2  0
 11  5  1  0
 12  7  1  0
 13 12  2  0
 14 13  1  0
 15 14  2  0
 16 15  1  0
 17 12  1  0
 17 16  2  0
  8 18  1  0
  9 19  1  0
 10 20  1  0
 11 21  1  0
 13 22  1  0
 14 23  1  0
 15 24  1  0
 16 25  1  0
 17 26  1  0
M  END
>  <score>  (8) 
-8.803

$$$$
=
     RDKit          3D

 26 28  0  0  0  0  0  0  0  0999 V2000
   -0.8250   68.7000   64.6310 O   0  0  0  0  0  0  0  0  0  0  0  0
    0.3170   68.7080   64.2170 C   0  0  0  0  0  0  0  0  0  0  0  0
    0.6720   68.8470   62.7250 C   0  0  0  0  0  0  0  0  0  0  0  0
   -0.0960   68.9620   61.7960 O   0  0  0  0  0  0  0  0  0  0  0  0
    2.1260   68.8030   62.6510 C   0  0  0  0  0  0  0  0  0  0  0  0
    2.6130   68.6570   63.9510 C   0  0  0  0  0  0  0  0  0  0  0  0
    1.5450   68.6420   64.8840 N   0  0  0  0  0  0  0  0  0  0  0  0
    3.9750   68.4710   64.1310 C   0  0  0  0  0  0  0  0  0  0  0  0
    4.8170   68.5080   63.0080 C   0  0  0  0  0  0  0  0  0  0  0  0
    4.3000   68.7000   61.7160 C   0  0  0  0  0  0  0  0  0  0  0  0
    2.9280   68.8390   61.5240 C   0  0  0  0  0  0  0  0  0  0  0  0
    1.6920   68.5820   66.2920 C   0  0  0  0  0  0  0  0  0  0  0  0
    0.9930   67.6150   67.0310 C   0  0  0  0  0  0  0  0  0  0  0  0
    1.1130   67.5410   68.4230 C   0  0  0  0  0  0  0  0  0  0  0  0
    1.9190   68.4470   69.1030 C   0  0  0  0  0  0  0  0  0  0  0  0
    2.5940   69.4340   68.3940 C   0  0  0  0  0  0  0  0  0  0  0  0
    2.4750   69.5040   67.0010 C   0  0  0  0  0  0  0  0  0  0  0  0
    4.3885   68.2976   65.1354 H   0  0  0  0  0  0  0  0  0  0  0  0
    5.9017   68.3843   63.1424 H   0  0  0  0  0  0  0  0  0  0  0  0
    4.9812   68.7407   60.8533 H   0  0  0  0  0  0  0  0  0  0  0  0
    2.5000   68.9717   60.5194 H   0  0  0  0  0  0  0  0  0  0  0  0
    0.3392   66.9026   66.5065 H   0  0  0  0  0  0  0  0  0  0  0  0
    0.5686   66.7645   68.9804 H   0  0  0  0  0  0  0  0  0  0  0  0
    2.0221   68.3832   70.1963 H   0  0  0  0  0  0  0  0  0  0  0  0
    3.2227   70.1613   68.9286 H   0  0  0  0  0  0  0  0  0  0  0  0
    3.0053   70.2966   66.4528 H   0  0  0  0  0  0  0  0  0  0  0  0
  2  1  2  0
  3  2  1  0
  4  3  2  0
  5  3  1  0
  6  5  2  0
  7  6  1  0
  7  2  1  0
  8  6  1  0
  9  8  2  0
 10  9  1  0
 11 10  2  0
 11  5  1  0
 12  7  1  0
 13 12  2  0
 14 13  1  0
 15 14  2  0
 16 15  1  0
 17 12  1  0
 17 16  2  0
  8 18  1  0
  9 19  1  0
 10 20  1  0
 11 21  1  0
 13 22  1  0
 14 23  1  0
 15 24  1  0
 16 25  1  0
 17 26  1  0
M  END
>  <score>  (9) 
-8.697

$$$$
