=
     RDKit          3D

 23 23  0  0  0  0  0  0  0  0999 V2000
    1.5450   68.2540   67.7860 N   0  0  0  0  0  0  0  0  0  0  0  0
    1.9930   69.4080   67.3980 C   0  0  0  0  0  0  0  0  0  0  0  0
   -1.8820   67.3980   67.2720 N   0  0  0  0  0  0  0  0  0  0  0  0
   -0.5550   67.4810   67.1260 C   0  0  0  0  0  0  0  0  0  0  0  0
    0.0340   66.8570   66.1020 N   0  0  0  0  0  4  0  0  0  0  0  0
    0.2030   68.1910   68.0120 N   0  0  0  0  0  0  0  0  0  0  0  0
    3.4230   69.6570   67.0910 C   0  0  0  0  0  0  0  0  0  0  0  0
    4.3260   70.1710   68.0410 C   0  0  0  0  0  0  0  0  0  0  0  0
    3.8780   70.6160   69.6520 Cl  0  0  0  0  0  0  0  0  0  0  0  0
    5.6670   70.3860   67.6930 C   0  0  0  0  0  0  0  0  0  0  0  0
    6.1210   70.0990   66.4090 C   0  0  0  0  0  0  0  0  0  0  0  0
    5.2340   69.5950   65.4610 C   0  0  0  0  0  0  0  0  0  0  0  0
    3.8940   69.3750   65.7960 C   0  0  0  0  0  0  0  0  0  0  0  0
    2.8830   68.7130   64.5550 Cl  0  0  0  0  0  0  0  0  0  0  0  0
    1.2805   70.2393   67.2918 H   0  0  0  0  0  0  0  0  0  0  0  0
   -2.3445   67.8759   68.0585 H   0  0  0  0  0  0  0  0  0  0  0  0
   -2.4414   66.8562   66.5979 H   0  0  0  0  0  0  0  0  0  0  0  0
    1.0553   66.9155   65.9819 H   0  0  0  0  0  0  0  0  0  0  0  0
   -0.5332   66.3174   65.4327 H   0  0  0  0  0  0  0  0  0  0  0  0
   -0.2243   68.6621   68.8222 H   0  0  0  0  0  0  0  0  0  0  0  0
    6.3669   70.7853   68.4418 H   0  0  0  0  0  0  0  0  0  0  0  0
    7.1750   70.2694   66.1444 H   0  0  0  0  0  0  0  0  0  0  0  0
    5.5887   69.3690   64.4446 H   0  0  0  0  0  0  0  0  0  0  0  0
  2  1  2  0
  4  3  1  0
  5  4  2  3
  6  4  1  0
  6  1  1  0
  7  2  1  0
  8  7  2  0
  9  8  1  0
 10  8  1  0
 11 10  2  0
 12 11  1  0
 13 12  2  0
 13  7  1  0
 14 13  1  0
  2 15  1  0
  3 16  1  0
  3 17  1  0
  5 18  1  0
  5 19  1  0
  6 20  1  0
 10 21  1  0
 11 22  1  0
 12 23  1  0
M  CHG  1   5   1
M  END
>  <score>  (1) 
-8.043

$$$$
=
     RDKit          3D

 23 23  0  0  0  0  0  0  0  0999 V2000
    1.6880   68.2090   67.6930 N   0  0  0  0  0  0  0  0  0  0  0  0
    2.1680   69.4070   67.5570 C   0  0  0  0  0  0  0  0  0  0  0  0
   -1.7810   67.3720   67.6320 N   0  0  0  0  0  0  0  0  0  0  0  0
   -0.4880   67.4600   67.3060 C   0  0  0  0  0  0  0  0  0  0  0  0
   -0.0500   66.8690   66.1900 N   0  0  0  0  0  4  0  0  0  0  0  0
    0.3900   68.1400   68.1010 N   0  0  0  0  0  0  0  0  0  0  0  0
    3.5560   69.6740   67.1070 C   0  0  0  0  0  0  0  0  0  0  0  0
    3.9870   69.4340   65.7900 C   0  0  0  0  0  0  0  0  0  0  0  0
    2.9800   68.7580   64.5550 Cl  0  0  0  0  0  0  0  0  0  0  0  0
    5.3120   69.7060   65.4220 C   0  0  0  0  0  0  0  0  0  0  0  0
    6.2160   70.2130   66.3520 C   0  0  0  0  0  0  0  0  0  0  0  0
    5.8000   70.4500   67.6590 C   0  0  0  0  0  0  0  0  0  0  0  0
    4.4800   70.1840   68.0380 C   0  0  0  0  0  0  0  0  0  0  0  0
    4.0550   70.5460   69.6770 Cl  0  0  0  0  0  0  0  0  0  0  0  0
    1.5162   70.2631   67.7857 H   0  0  0  0  0  0  0  0  0  0  0  0
   -2.1277   67.8242   68.4900 H   0  0  0  0  0  0  0  0  0  0  0  0
   -2.4309   66.8520   67.0252 H   0  0  0  0  0  0  0  0  0  0  0  0
    0.9448   66.9314   65.9306 H   0  0  0  0  0  0  0  0  0  0  0  0
   -0.7073   66.3512   65.5894 H   0  0  0  0  0  0  0  0  0  0  0  0
    0.0819   68.5847   68.9775 H   0  0  0  0  0  0  0  0  0  0  0  0
    5.6406   69.5173   64.3893 H   0  0  0  0  0  0  0  0  0  0  0  0
    7.2537   70.4252   66.0552 H   0  0  0  0  0  0  0  0  0  0  0  0
    6.5121   70.8481   68.3968 H   0  0  0  0  0  0  0  0  0  0  0  0
  2  1  2  0
  4  3  1  0
  5  4  2  3
  6  4  1  0
  6  1  1  0
  7  2  1  0
  8  7  2  0
  9  8  1  0
 10  8  1  0
 11 10  2  0
 12 11  1  0
 13 12  2  0
 13  7  1  0
 14 13  1  0
  2 15  1  0
  3 16  1  0
  3 17  1  0
  5 18  1  0
  5 19  1  0
  6 20  1  0
 10 21  1  0
 11 22  1  0
 12 23  1  0
M  CHG  1   5   1
M  END
>  <score>  (2) 
-7.999

$$$$
=
     RDKit          3D

 23 23  0  0  0  0  0  0  0  0999 V2000
   -0.6700   69.3270   66.1420 N   0  0  0  0  0  0  0  0  0  0  0  0
    0.3210   68.5130   66.3420 C   0  0  0  0  0  0  0  0  0  0  0  0
   -4.1250   68.4320   66.1850 N   0  0  0  0  0  0  0  0  0  0  0  0
   -2.9110   68.8020   65.7620 C   0  0  0  0  0  0  0  0  0  0  0  0
   -2.7150   69.0520   64.4640 N   0  0  0  0  0  4  0  0  0  0  0  0
   -1.8710   68.9210   66.6390 N   0  0  0  0  0  0  0  0  0  0  0  0
    1.7030   68.7960   65.8850 C   0  0  0  0  0  0  0  0  0  0  0  0
    2.0900   68.7120   64.5350 C   0  0  0  0  0  0  0  0  0  0  0  0
    1.0270   68.2260   63.2580 Cl  0  0  0  0  0  0  0  0  0  0  0  0
    3.4120   68.9900   64.1620 C   0  0  0  0  0  0  0  0  0  0  0  0
    4.3570   69.3510   65.1180 C   0  0  0  0  0  0  0  0  0  0  0  0
    3.9860   69.4330   66.4580 C   0  0  0  0  0  0  0  0  0  0  0  0
    2.6690   69.1580   66.8420 C   0  0  0  0  0  0  0  0  0  0  0  0
    2.3030   69.3210   68.5270 Cl  0  0  0  0  0  0  0  0  0  0  0  0
    0.1269   67.5704   66.8747 H   0  0  0  0  0  0  0  0  0  0  0  0
   -4.2852   68.2373   67.1837 H   0  0  0  0  0  0  0  0  0  0  0  0
   -4.8995   68.3418   65.5120 H   0  0  0  0  0  0  0  0  0  0  0  0
   -1.7836   69.3374   64.1294 H   0  0  0  0  0  0  0  0  0  0  0  0
   -3.4953   68.9593   63.7981 H   0  0  0  0  0  0  0  0  0  0  0  0
   -1.9907   68.7112   67.6403 H   0  0  0  0  0  0  0  0  0  0  0  0
    3.7055   68.9223   63.1040 H   0  0  0  0  0  0  0  0  0  0  0  0
    5.3919   69.5705   64.8167 H   0  0  0  0  0  0  0  0  0  0  0  0
    4.7308   69.7149   67.2168 H   0  0  0  0  0  0  0  0  0  0  0  0
  2  1  2  0
  4  3  1  0
  5  4  2  3
  6  4  1  0
  6  1  1  0
  7  2  1  0
  8  7  2  0
  9  8  1  0
 10  8  1  0
 11 10  2  0
 12 11  1  0
 13 12  2  0
 13  7  1  0
 14 13  1  0
  2 15  1  0
  3 16  1  0
  3 17  1  0
  5 18  1  0
  5 19  1  0
  6 20  1  0
 10 21  1  0
 11 22  1  0
 12 23  1  0
M  CHG  1   5   1
M  END
>  <score>  (3) 
-7.987

$$$$
=
     RDKit          3D

 23 23  0  0  0  0  0  0  0  0999 V2000
   -0.0790   69.2380   64.7960 N   0  0  0  0  0  0  0  0  0  0  0  0
    0.8910   68.3760   64.8250 C   0  0  0  0  0  0  0  0  0  0  0  0
   -3.3890   68.3330   65.7770 N   0  0  0  0  0  0  0  0  0  0  0  0
   -2.1560   68.8490   65.7860 C   0  0  0  0  0  0  0  0  0  0  0  0
   -1.7290   69.5150   66.8630 N   0  0  0  0  0  4  0  0  0  0  0  0
   -1.3310   68.7080   64.7070 N   0  0  0  0  0  0  0  0  0  0  0  0
    2.3170   68.7700   64.9350 C   0  0  0  0  0  0  0  0  0  0  0  0
    2.9260   69.0860   66.1640 C   0  0  0  0  0  0  0  0  0  0  0  0
    2.0870   69.1020   67.6780 Cl  0  0  0  0  0  0  0  0  0  0  0  0
    4.2780   69.4520   66.2070 C   0  0  0  0  0  0  0  0  0  0  0  0
    5.0330   69.5100   65.0390 C   0  0  0  0  0  0  0  0  0  0  0  0
    4.4390   69.2030   63.8170 C   0  0  0  0  0  0  0  0  0  0  0  0
    3.0910   68.8360   63.7620 C   0  0  0  0  0  0  0  0  0  0  0  0
    2.4570   68.4420   62.1990 Cl  0  0  0  0  0  0  0  0  0  0  0  0
    0.6447   67.3056   64.7654 H   0  0  0  0  0  0  0  0  0  0  0  0
   -3.7259   67.8183   64.9509 H   0  0  0  0  0  0  0  0  0  0  0  0
   -4.0023   68.4501   66.5962 H   0  0  0  0  0  0  0  0  0  0  0  0
   -0.7803   69.9157   66.8781 H   0  0  0  0  0  0  0  0  0  0  0  0
   -2.3486   69.6276   67.6780 H   0  0  0  0  0  0  0  0  0  0  0  0
   -1.6440   68.2186   63.8565 H   0  0  0  0  0  0  0  0  0  0  0  0
    4.7466   69.6955   67.1719 H   0  0  0  0  0  0  0  0  0  0  0  0
    6.0941   69.7970   65.0808 H   0  0  0  0  0  0  0  0  0  0  0  0
    5.0326   69.2495   62.8920 H   0  0  0  0  0  0  0  0  0  0  0  0
  2  1  2  0
  4  3  1  0
  5  4  2  3
  6  4  1  0
  6  1  1  0
  7  2  1  0
  8  7  2  0
  9  8  1  0
 10  8  1  0
 11 10  2  0
 12 11  1  0
 13 12  2  0
 13  7  1  0
 14 13  1  0
  2 15  1  0
  3 16  1  0
  3 17  1  0
  5 18  1  0
  5 19  1  0
  6 20  1  0
 10 21  1  0
 11 22  1  0
 12 23  1  0
M  CHG  1   5   1
M  END
>  <score>  (4) 
-7.939

$$$$
=
     RDKit          3D

 23 23  0  0  0  0  0  0  0  0999 V2000
    4.3420   69.4950   64.2640 N   0  0  0  0  0  0  0  0  0  0  0  0
    4.6090   68.9570   65.4150 C   0  0  0  0  0  0  0  0  0  0  0  0
    4.1990   67.6150   61.2340 N   0  0  0  0  0  0  0  0  0  0  0  0
    3.8410   68.3250   62.3090 C   0  0  0  0  0  0  0  0  0  0  0  0
    2.5470   68.5740   62.5310 N   0  0  0  0  0  4  0  0  0  0  0  0
    4.7810   68.8010   63.1770 N   0  0  0  0  0  0  0  0  0  0  0  0
    4.1960   69.5630   66.7040 C   0  0  0  0  0  0  0  0  0  0  0  0
    5.0970   70.2330   67.5530 C   0  0  0  0  0  0  0  0  0  0  0  0
    6.7900   70.3910   67.2270 Cl  0  0  0  0  0  0  0  0  0  0  0  0
    4.6500   70.7860   68.7600 C   0  0  0  0  0  0  0  0  0  0  0  0
    3.3140   70.6790   69.1360 C   0  0  0  0  0  0  0  0  0  0  0  0
    2.4150   70.0140   68.3060 C   0  0  0  0  0  0  0  0  0  0  0  0
    2.8500   69.4590   67.0980 C   0  0  0  0  0  0  0  0  0  0  0  0
    1.6470   68.6840   66.1220 Cl  0  0  0  0  0  0  0  0  0  0  0  0
    5.1666   68.0090   65.4350 H   0  0  0  0  0  0  0  0  0  0  0  0
    5.1940   67.4182   61.0548 H   0  0  0  0  0  0  0  0  0  0  0  0
    3.4798   67.2649   60.5851 H   0  0  0  0  0  0  0  0  0  0  0  0
    2.2619   69.1201   63.3565 H   0  0  0  0  0  0  0  0  0  0  0  0
    1.8348   68.2199   61.8766 H   0  0  0  0  0  0  0  0  0  0  0  0
    5.7857   68.6412   63.0159 H   0  0  0  0  0  0  0  0  0  0  0  0
    5.3609   71.3093   69.4163 H   0  0  0  0  0  0  0  0  0  0  0  0
    2.9700   71.1177   70.0843 H   0  0  0  0  0  0  0  0  0  0  0  0
    1.3592   69.9249   68.6014 H   0  0  0  0  0  0  0  0  0  0  0  0
  2  1  2  0
  4  3  1  0
  5  4  2  3
  6  4  1  0
  6  1  1  0
  7  2  1  0
  8  7  2  0
  9  8  1  0
 10  8  1  0
 11 10  2  0
 12 11  1  0
 13 12  2  0
 13  7  1  0
 14 13  1  0
  2 15  1  0
  3 16  1  0
  3 17  1  0
  5 18  1  0
  5 19  1  0
  6 20  1  0
 10 21  1  0
 11 22  1  0
 12 23  1  0
M  CHG  1   5   1
M  END
>  <score>  (5) 
-7.7

$$$$
=
     RDKit          3D

 23 23  0  0  0  0  0  0  0  0999 V2000
    4.4530   69.4950   64.2790 N   0  0  0  0  0  0  0  0  0  0  0  0
    4.5140   68.8730   65.4170 C   0  0  0  0  0  0  0  0  0  0  0  0
    4.1980   67.6250   61.2500 N   0  0  0  0  0  0  0  0  0  0  0  0
    3.8840   68.3580   62.3230 C   0  0  0  0  0  0  0  0  0  0  0  0
    2.6080   68.6910   62.5410 N   0  0  0  0  0  4  0  0  0  0  0  0
    4.8490   68.7740   63.1940 N   0  0  0  0  0  0  0  0  0  0  0  0
    4.1090   69.4970   66.7000 C   0  0  0  0  0  0  0  0  0  0  0  0
    2.7900   69.4440   67.1870 C   0  0  0  0  0  0  0  0  0  0  0  0
    1.4790   68.6960   66.3390 Cl  0  0  0  0  0  0  0  0  0  0  0  0
    2.4640   70.0520   68.4080 C   0  0  0  0  0  0  0  0  0  0  0  0
    3.4380   70.7150   69.1500 C   0  0  0  0  0  0  0  0  0  0  0  0
    4.7450   70.7770   68.6740 C   0  0  0  0  0  0  0  0  0  0  0  0
    5.0810   70.1730   67.4580 C   0  0  0  0  0  0  0  0  0  0  0  0
    6.7410   70.2780   66.9730 Cl  0  0  0  0  0  0  0  0  0  0  0  0
    4.8826   67.8367   65.4301 H   0  0  0  0  0  0  0  0  0  0  0  0
    5.1786   67.3636   61.0739 H   0  0  0  0  0  0  0  0  0  0  0  0
    3.4593   67.3216   60.5994 H   0  0  0  0  0  0  0  0  0  0  0  0
    2.3566   69.2555   63.3651 H   0  0  0  0  0  0  0  0  0  0  0  0
    1.8761   68.3831   61.8849 H   0  0  0  0  0  0  0  0  0  0  0  0
    5.8419   68.5504   63.0361 H   0  0  0  0  0  0  0  0  0  0  0  0
    1.4308   70.0048   68.7824 H   0  0  0  0  0  0  0  0  0  0  0  0
    3.1760   71.1877   70.1081 H   0  0  0  0  0  0  0  0  0  0  0  0
    5.5160   71.3028   69.2563 H   0  0  0  0  0  0  0  0  0  0  0  0
  2  1  2  0
  4  3  1  0
  5  4  2  3
  6  4  1  0
  6  1  1  0
  7  2  1  0
  8  7  2  0
  9  8  1  0
 10  8  1  0
 11 10  2  0
 12 11  1  0
 13 12  2  0
 13  7  1  0
 14 13  1  0
  2 15  1  0
  3 16  1  0
  3 17  1  0
  5 18  1  0
  5 19  1  0
  6 20  1  0
 10 21  1  0
 11 22  1  0
 12 23  1  0
M  CHG  1   5   1
M  END
>  <score>  (6) 
-7.597

$$$$
=
     RDKit          3D

 23 23  0  0  0  0  0  0  0  0999 V2000
    1.1540   67.8120   65.7410 N   0  0  0  0  0  0  0  0  0  0  0  0
    2.3690   67.3570   65.7540 C   0  0  0  0  0  0  0  0  0  0  0  0
   -1.1390   66.5030   68.1420 N   0  0  0  0  0  0  0  0  0  0  0  0
   -0.2340   67.2810   67.5390 C   0  0  0  0  0  0  0  0  0  0  0  0
    0.2340   68.3590   68.1750 N   0  0  0  0  0  4  0  0  0  0  0  0
    0.2130   66.9900   66.2820 N   0  0  0  0  0  0  0  0  0  0  0  0
    3.5240   68.1210   65.2220 C   0  0  0  0  0  0  0  0  0  0  0  0
    4.0750   69.2290   65.8900 C   0  0  0  0  0  0  0  0  0  0  0  0
    3.4530   69.8650   67.3760 Cl  0  0  0  0  0  0  0  0  0  0  0  0
    5.1670   69.9140   65.3380 C   0  0  0  0  0  0  0  0  0  0  0  0
    5.7170   69.5080   64.1250 C   0  0  0  0  0  0  0  0  0  0  0  0
    5.1760   68.4150   63.4540 C   0  0  0  0  0  0  0  0  0  0  0  0
    4.0870   67.7240   63.9950 C   0  0  0  0  0  0  0  0  0  0  0  0
    3.5110   66.3590   63.0990 Cl  0  0  0  0  0  0  0  0  0  0  0  0
    2.5510   66.3589   66.1790 H   0  0  0  0  0  0  0  0  0  0  0  0
   -1.5054   65.6700   67.6594 H   0  0  0  0  0  0  0  0  0  0  0  0
   -1.4698   66.7367   69.0890 H   0  0  0  0  0  0  0  0  0  0  0  0
    0.9313   68.9641   67.7183 H   0  0  0  0  0  0  0  0  0  0  0  0
   -0.1026   68.5848   69.1219 H   0  0  0  0  0  0  0  0  0  0  0  0
   -0.1487   66.1779   65.7618 H   0  0  0  0  0  0  0  0  0  0  0  0
    5.5926   70.7791   65.8676 H   0  0  0  0  0  0  0  0  0  0  0  0
    6.5751   70.0485   63.6989 H   0  0  0  0  0  0  0  0  0  0  0  0
    5.6067   68.0934   62.4943 H   0  0  0  0  0  0  0  0  0  0  0  0
  2  1  2  0
  4  3  1  0
  5  4  2  3
  6  4  1  0
  6  1  1  0
  7  2  1  0
  8  7  2  0
  9  8  1  0
 10  8  1  0
 11 10  2  0
 12 11  1  0
 13 12  2  0
 13  7  1  0
 14 13  1  0
  2 15  1  0
  3 16  1  0
  3 17  1  0
  5 18  1  0
  5 19  1  0
  6 20  1  0
 10 21  1  0
 11 22  1  0
 12 23  1  0
M  CHG  1   5   1
M  END
>  <score>  (7) 
-6.569

$$$$
=
     RDKit          3D

 23 23  0  0  0  0  0  0  0  0999 V2000
    1.2390   65.3030   69.9650 N   0  0  0  0  0  0  0  0  0  0  0  0
    2.2910   64.6780   70.3980 C   0  0  0  0  0  0  0  0  0  0  0  0
    0.6680   68.4480   68.3770 N   0  0  0  0  0  0  0  0  0  0  0  0
    0.5280   67.1780   68.7730 C   0  0  0  0  0  0  0  0  0  0  0  0
   -0.5110   66.4630   68.3330 N   0  0  0  0  0  4  0  0  0  0  0  0
    1.4300   66.6070   69.6240 N   0  0  0  0  0  0  0  0  0  0  0  0
    2.2740   63.2510   70.8000 C   0  0  0  0  0  0  0  0  0  0  0  0
    1.6180   62.7950   71.9590 C   0  0  0  0  0  0  0  0  0  0  0  0
    0.7990   63.8360   73.0740 Cl  0  0  0  0  0  0  0  0  0  0  0  0
    1.6350   61.4330   72.2890 C   0  0  0  0  0  0  0  0  0  0  0  0
    2.3010   60.5170   71.4800 C   0  0  0  0  0  0  0  0  0  0  0  0
    2.9580   60.9580   70.3330 C   0  0  0  0  0  0  0  0  0  0  0  0
    2.9460   62.3150   69.9930 C   0  0  0  0  0  0  0  0  0  0  0  0
    3.7620   62.7540   68.5310 Cl  0  0  0  0  0  0  0  0  0  0  0  0
    3.2384   65.2324   70.4700 H   0  0  0  0  0  0  0  0  0  0  0  0
    1.4661   69.0067   68.7113 H   0  0  0  0  0  0  0  0  0  0  0  0
   -0.0223   68.8672   67.7378 H   0  0  0  0  0  0  0  0  0  0  0  0
   -0.6266   65.4844   68.6328 H   0  0  0  0  0  0  0  0  0  0  0  0
   -1.1965   66.8903   67.6939 H   0  0  0  0  0  0  0  0  0  0  0  0
    2.2269   67.1439   69.9949 H   0  0  0  0  0  0  0  0  0  0  0  0
    1.1175   61.0850   73.1952 H   0  0  0  0  0  0  0  0  0  0  0  0
    2.3087   59.4494   71.7449 H   0  0  0  0  0  0  0  0  0  0  0  0
    3.4877   60.2370   69.6930 H   0  0  0  0  0  0  0  0  0  0  0  0
  2  1  2  0
  4  3  1  0
  5  4  2  3
  6  4  1  0
  6  1  1  0
  7  2  1  0
  8  7  2  0
  9  8  1  0
 10  8  1  0
 11 10  2  0
 12 11  1  0
 13 12  2  0
 13  7  1  0
 14 13  1  0
  2 15  1  0
  3 16  1  0
  3 17  1  0
  5 18  1  0
  5 19  1  0
  6 20  1  0
 10 21  1  0
 11 22  1  0
 12 23  1  0
M  CHG  1   5   1
M  END
>  <score>  (8) 
-6.454

$$$$
=
     RDKit          3D

 23 23  0  0  0  0  0  0  0  0999 V2000
    1.0650   65.6980   69.5860 N   0  0  0  0  0  0  0  0  0  0  0  0
    1.9690   65.1860   70.3630 C   0  0  0  0  0  0  0  0  0  0  0  0
    0.4920   68.8610   68.0350 N   0  0  0  0  0  0  0  0  0  0  0  0
    0.3940   67.5680   68.3640 C   0  0  0  0  0  0  0  0  0  0  0  0
   -0.5120   66.8010   67.7510 N   0  0  0  0  0  4  0  0  0  0  0  0
    1.2030   67.0260   69.3210 N   0  0  0  0  0  0  0  0  0  0  0  0
    1.9870   63.7530   70.7480 C   0  0  0  0  0  0  0  0  0  0  0  0
    2.7660   62.7950   70.0730 C   0  0  0  0  0  0  0  0  0  0  0  0
    3.7530   63.1520   68.6970 Cl  0  0  0  0  0  0  0  0  0  0  0  0
    2.7420   61.4540   70.4810 C   0  0  0  0  0  0  0  0  0  0  0  0
    1.9490   61.0540   71.5530 C   0  0  0  0  0  0  0  0  0  0  0  0
    1.1710   61.9940   72.2240 C   0  0  0  0  0  0  0  0  0  0  0  0
    1.1870   63.3350   71.8270 C   0  0  0  0  0  0  0  0  0  0  0  0
    0.2110   64.4280   72.7480 Cl  0  0  0  0  0  0  0  0  0  0  0  0
    2.7585   65.8444   70.7544 H   0  0  0  0  0  0  0  0  0  0  0  0
    1.1875   69.4600   68.5023 H   0  0  0  0  0  0  0  0  0  0  0  0
   -0.1281   69.2575   67.3144 H   0  0  0  0  0  0  0  0  0  0  0  0
   -0.5947   65.8044   67.9978 H   0  0  0  0  0  0  0  0  0  0  0  0
   -1.1278   67.2063   67.0317 H   0  0  0  0  0  0  0  0  0  0  0  0
    1.8931   67.6015   69.8245 H   0  0  0  0  0  0  0  0  0  0  0  0
    3.3551   60.7114   69.9494 H   0  0  0  0  0  0  0  0  0  0  0  0
    1.9370   60.0003   71.8685 H   0  0  0  0  0  0  0  0  0  0  0  0
    0.5413   61.6806   73.0697 H   0  0  0  0  0  0  0  0  0  0  0  0
  2  1  2  0
  4  3  1  0
  5  4  2  3
  6  4  1  0
  6  1  1  0
  7  2  1  0
  8  7  2  0
  9  8  1  0
 10  8  1  0
 11 10  2  0
 12 11  1  0
 13 12  2  0
 13  7  1  0
 14 13  1  0
  2 15  1  0
  3 16  1  0
  3 17  1  0
  5 18  1  0
  5 19  1  0
  6 20  1  0
 10 21  1  0
 11 22  1  0
 12 23  1  0
M  CHG  1   5   1
M  END
>  <score>  (9) 
-6.423

$$$$
