=
     RDKit          3D

 88 91  0  0  0  0  0  0  0  0999 V2000
   -2.1040   61.9880   74.4680 O   0  0  0  0  0  0  0  0  0  0  0  0
   -2.8990   61.9660   75.6630 C   0  0  1  0  0  0  0  0  0  0  0  0
   -3.6160   63.2000   75.7580 O   0  0  0  0  0  0  0  0  0  0  0  0
   -4.5230   63.2840   76.8650 C   0  0  2  0  0  0  0  0  0  0  0  0
   -3.8040   63.3300   78.2100 C   0  0  0  0  0  0  0  0  0  0  0  0
   -5.6040   62.1820   76.7270 C   0  0  2  0  0  0  0  0  0  0  0  0
   -4.9500   60.7810   76.5990 C   0  0  1  0  0  0  0  0  0  0  0  0
   -3.8890   60.7910   75.4940 C   0  0  1  0  0  0  0  0  0  0  0  0
   -6.3800   62.4770   75.4330 N   0  0  0  0  0  4  0  0  0  0  0  0
   -7.5710   63.3890   75.4830 C   0  0  1  0  0  0  0  0  0  0  0  0
   -7.4340   64.5780   74.5720 C   0  0  0  0  0  0  0  0  0  0  0  0
   -8.4030   64.9800   73.7260 C   0  0  0  0  0  0  0  0  0  0  0  0
   -9.7490   64.2900   73.6720 C   0  0  2  0  0  0  0  0  0  0  0  0
  -10.0580   63.4710   74.9460 C   0  0  1  0  0  0  0  0  0  0  0  0
   -8.8720   62.5520   75.2800 C   0  0  1  0  0  0  0  0  0  0  0  0
   -9.7050   63.3930   72.5600 O   0  0  0  0  0  0  0  0  0  0  0  0
  -10.3170   64.3240   76.0620 O   0  0  0  0  0  0  0  0  0  0  0  0
   -8.6870   61.5310   74.2840 O   0  0  0  0  0  0  0  0  0  0  0  0
   -8.2320   66.1320   72.7780 C   0  0  0  0  0  0  0  0  0  0  0  0
   -7.9360   65.5780   71.5040 O   0  0  0  0  0  0  0  0  0  0  0  0
   -4.4030   60.3630   77.8450 O   0  0  0  0  0  0  0  0  0  0  0  0
   -4.5870   60.9340   74.2270 O   0  0  0  0  0  0  0  0  0  0  0  0
    0.2290   62.6620   74.5090 C   0  0  1  0  0  0  0  0  0  0  0  0
    1.5920   62.2210   74.6580 O   0  0  0  0  0  0  0  0  0  0  0  0
    1.9700   61.2150   73.7240 C   0  0  1  0  0  0  0  0  0  0  0  0
    1.0430   59.9880   73.8230 C   0  0  1  0  0  0  0  0  0  0  0  0
   -0.4250   60.3980   73.6850 C   0  0  2  0  0  0  0  0  0  0  0  0
   -0.7660   61.5010   74.6980 C   0  0  2  0  0  0  0  0  0  0  0  0
    1.3340   59.0080   72.8150 O   0  0  0  0  0  0  0  0  0  0  0  0
   -1.2540   59.2400   73.8930 O   0  0  0  0  0  0  0  0  0  0  0  0
    1.9480   61.6970   72.3730 O   0  0  0  0  0  0  0  0  0  0  0  0
    3.2490   62.1170   71.8910 C   0  0  2  0  0  0  0  0  0  0  0  0
    3.2050   62.2880   70.3610 C   0  0  2  0  0  0  0  0  0  0  0  0
    2.9200   61.0690   69.6380 O   0  0  0  0  0  0  0  0  0  0  0  0
    3.1960   59.8610   70.3330 C   0  0  2  0  0  0  0  0  0  0  0  0
    4.4350   59.9490   71.2280 C   0  0  1  0  0  0  0  0  0  0  0  0
    4.2450   61.0190   72.3080 C   0  0  1  0  0  0  0  0  0  0  0  0
    3.4420   58.8540   69.3570 O   0  0  0  0  0  0  0  0  0  0  0  0
    4.7170   58.6900   71.8560 O   0  0  0  0  0  0  0  0  0  0  0  0
    5.5140   61.6120   72.6100 O   0  0  0  0  0  0  0  0  0  0  0  0
    4.4840   62.9180   69.7880 C   0  0  0  0  0  0  0  0  0  0  0  0
    5.0130   63.8450   70.7390 O   0  0  0  0  0  0  0  0  0  0  0  0
    0.0000   63.7870   75.5280 C   0  0  0  0  0  0  0  0  0  0  0  0
   -0.9600   64.7250   75.0460 O   0  0  0  0  0  0  0  0  0  0  0  0
   -2.2895   61.8438   76.5705 H   0  0  0  0  0  0  0  0  0  0  0  0
   -5.0527   64.2477   76.8386 H   0  0  0  0  0  0  0  0  0  0  0  0
   -4.5435   63.2827   79.0229 H   0  0  0  0  0  0  0  0  0  0  0  0
   -3.1177   62.4739   78.2884 H   0  0  0  0  0  0  0  0  0  0  0  0
   -3.2324   64.2666   78.2884 H   0  0  0  0  0  0  0  0  0  0  0  0
   -6.2558   62.1821   77.6131 H   0  0  0  0  0  0  0  0  0  0  0  0
   -5.7252   60.0524   76.3193 H   0  0  0  0  0  0  0  0  0  0  0  0
   -3.3066   59.8589   75.5388 H   0  0  0  0  0  0  0  0  0  0  0  0
   -5.7108   62.8926   74.7694 H   0  0  0  0  0  0  0  0  0  0  0  0
   -6.7821   61.5642   75.1760 H   0  0  0  0  0  0  0  0  0  0  0  0
   -7.6368   63.8477   76.4806 H   0  0  0  0  0  0  0  0  0  0  0  0
   -6.4942   65.1490   74.5976 H   0  0  0  0  0  0  0  0  0  0  0  0
  -10.5344   65.0550   73.5827 H   0  0  0  0  0  0  0  0  0  0  0  0
  -10.9570   62.8690   74.7476 H   0  0  0  0  0  0  0  0  0  0  0  0
   -9.1032   62.0378   76.2245 H   0  0  0  0  0  0  0  0  0  0  0  0
   -9.6593   62.4606   72.8897 H   0  0  0  0  0  0  0  0  0  0  0  0
  -10.1650   63.8233   76.9024 H   0  0  0  0  0  0  0  0  0  0  0  0
   -8.5293   60.6607   74.7289 H   0  0  0  0  0  0  0  0  0  0  0  0
   -9.1594   66.7214   72.7279 H   0  0  0  0  0  0  0  0  0  0  0  0
   -7.4258   66.8011   73.1131 H   0  0  0  0  0  0  0  0  0  0  0  0
   -7.4727   64.7109   71.6208 H   0  0  0  0  0  0  0  0  0  0  0  0
   -4.9253   60.7622   78.5852 H   0  0  0  0  0  0  0  0  0  0  0  0
   -5.5425   61.1297   74.3969 H   0  0  0  0  0  0  0  0  0  0  0  0
    0.0556   63.0365   73.4894 H   0  0  0  0  0  0  0  0  0  0  0  0
    2.9998   60.9275   73.9825 H   0  0  0  0  0  0  0  0  0  0  0  0
    1.2224   59.5464   74.8144 H   0  0  0  0  0  0  0  0  0  0  0  0
   -0.6068   60.7977   72.6764 H   0  0  0  0  0  0  0  0  0  0  0  0
   -0.7011   61.0965   75.7189 H   0  0  0  0  0  0  0  0  0  0  0  0
    1.5874   58.1545   73.2479 H   0  0  0  0  0  0  0  0  0  0  0  0
   -1.3656   59.0842   74.8643 H   0  0  0  0  0  0  0  0  0  0  0  0
    3.5524   63.0857   72.3148 H   0  0  0  0  0  0  0  0  0  0  0  0
    2.3626   62.9787   70.2082 H   0  0  0  0  0  0  0  0  0  0  0  0
    2.3333   59.6415   70.9792 H   0  0  0  0  0  0  0  0  0  0  0  0
    5.2845   60.2217   70.5846 H   0  0  0  0  0  0  0  0  0  0  0  0
    3.8243   60.5223   73.1948 H   0  0  0  0  0  0  0  0  0  0  0  0
    3.6509   57.9990   69.8104 H   0  0  0  0  0  0  0  0  0  0  0  0
    4.6926   58.7991   72.8397 H   0  0  0  0  0  0  0  0  0  0  0  0
    5.6280   61.6653   73.5920 H   0  0  0  0  0  0  0  0  0  0  0  0
    5.2257   62.1305   69.5888 H   0  0  0  0  0  0  0  0  0  0  0  0
    4.2517   63.4413   68.8487 H   0  0  0  0  0  0  0  0  0  0  0  0
    4.8274   63.5197   71.6554 H   0  0  0  0  0  0  0  0  0  0  0  0
   -0.3646   63.3508   76.4697 H   0  0  0  0  0  0  0  0  0  0  0  0
    0.9527   64.3124   75.6903 H   0  0  0  0  0  0  0  0  0  0  0  0
   -1.4078   65.1625   75.8129 H   0  0  0  0  0  0  0  0  0  0  0  0
  2  1  1  0
  3  2  1  0
  4  3  1  0
  5  4  1  0
  6  4  1  0
  7  6  1  0
  8  2  1  0
  8  7  1  0
  9  6  1  0
 10  9  1  0
 11 10  1  0
 12 11  2  0
 13 12  1  0
 14 13  1  0
 15 14  1  0
 15 10  1  0
 16 13  1  0
 17 14  1  0
 18 15  1  0
 19 12  1  0
 20 19  1  0
 21  7  1  0
 22  8  1  0
 24 23  1  0
 25 24  1  0
 26 25  1  0
 27 26  1  0
 28 27  1  0
 28 23  1  0
 28  1  1  0
 29 26  1  0
 30 27  1  0
 31 25  1  0
 32 31  1  0
 33 32  1  0
 34 33  1  0
 35 34  1  0
 36 35  1  0
 37 36  1  0
 37 32  1  0
 38 35  1  0
 39 36  1  0
 40 37  1  0
 41 33  1  0
 42 41  1  0
 43 23  1  0
 44 43  1  0
  2 45  1  1
  4 46  1  6
  5 47  1  0
  5 48  1  0
  5 49  1  0
  6 50  1  1
  7 51  1  6
  8 52  1  6
  9 53  1  0
  9 54  1  0
 10 55  1  1
 11 56  1  0
 13 57  1  6
 14 58  1  6
 15 59  1  1
 16 60  1  0
 17 61  1  0
 18 62  1  0
 19 63  1  0
 19 64  1  0
 20 65  1  0
 21 66  1  0
 22 67  1  0
 23 68  1  6
 25 69  1  1
 26 70  1  1
 27 71  1  6
 28 72  1  1
 29 73  1  0
 30 74  1  0
 32 75  1  1
 33 76  1  1
 35 77  1  1
 36 78  1  6
 37 79  1  1
 38 80  1  0
 39 81  1  0
 40 82  1  0
 41 83  1  0
 41 84  1  0
 42 85  1  0
 43 86  1  0
 43 87  1  0
 44 88  1  0
M  CHG  1   9   1
M  END
>  <score>  (1) 
-7.078

$$$$
=
     RDKit          3D

 88 91  0  0  0  0  0  0  0  0999 V2000
   -2.4940   62.7120   75.3990 O   0  0  0  0  0  0  0  0  0  0  0  0
   -1.2180   62.7220   76.0570 C   0  0  1  0  0  0  0  0  0  0  0  0
   -0.7200   61.3820   76.1090 O   0  0  0  0  0  0  0  0  0  0  0  0
    0.5950   61.2510   76.6650 C   0  0  2  0  0  0  0  0  0  0  0  0
    0.6340   61.5710   78.1570 C   0  0  0  0  0  0  0  0  0  0  0  0
    1.6030   62.0380   75.7900 C   0  0  2  0  0  0  0  0  0  0  0  0
    1.1650   63.5190   75.6410 C   0  0  1  0  0  0  0  0  0  0  0  0
   -0.2940   63.5960   75.1790 C   0  0  1  0  0  0  0  0  0  0  0  0
    1.5910   61.3850   74.3980 N   0  0  0  0  0  4  0  0  0  0  0  0
    2.8950   61.0790   73.7210 C   0  0  1  0  0  0  0  0  0  0  0  0
    2.8970   59.7380   73.0370 C   0  0  0  0  0  0  0  0  0  0  0  0
    3.3310   59.5500   71.7750 C   0  0  0  0  0  0  0  0  0  0  0  0
    3.9150   60.6810   70.9570 C   0  0  2  0  0  0  0  0  0  0  0  0
    4.4030   61.8630   71.8250 C   0  0  1  0  0  0  0  0  0  0  0  0
    3.2990   62.2800   72.8110 C   0  0  1  0  0  0  0  0  0  0  0  0
    2.8710   61.1520   70.1020 O   0  0  0  0  0  0  0  0  0  0  0  0
    5.5800   61.5190   72.5590 O   0  0  0  0  0  0  0  0  0  0  0  0
    2.1570   62.8340   72.1360 O   0  0  0  0  0  0  0  0  0  0  0  0
    3.2710   58.2190   71.0830 C   0  0  0  0  0  0  0  0  0  0  0  0
    3.7840   58.4110   69.7720 O   0  0  0  0  0  0  0  0  0  0  0  0
    1.3660   64.2300   76.8570 O   0  0  0  0  0  0  0  0  0  0  0  0
   -0.3390   63.1100   73.8090 O   0  0  0  0  0  0  0  0  0  0  0  0
   -4.6670   61.9180   76.1420 C   0  0  1  0  0  0  0  0  0  0  0  0
   -5.8070   62.1850   76.9790 O   0  0  0  0  0  0  0  0  0  0  0  0
   -6.4330   63.4350   76.7080 C   0  0  1  0  0  0  0  0  0  0  0  0
   -5.4340   64.5990   76.8530 C   0  0  1  0  0  0  0  0  0  0  0  0
   -4.1900   64.3650   75.9940 C   0  0  2  0  0  0  0  0  0  0  0  0
   -3.5750   62.9930   76.3110 C   0  0  2  0  0  0  0  0  0  0  0  0
   -6.0130   65.8580   76.4750 O   0  0  0  0  0  0  0  0  0  0  0  0
   -3.2430   65.4180   76.2450 O   0  0  0  0  0  0  0  0  0  0  0  0
   -6.9990   63.4800   75.3910 O   0  0  0  0  0  0  0  0  0  0  0  0
   -8.3940   63.0840   75.3510 C   0  0  2  0  0  0  0  0  0  0  0  0
   -8.5350   61.6330   75.8500 C   0  0  2  0  0  0  0  0  0  0  0  0
   -7.8500   60.6580   75.0330 O   0  0  0  0  0  0  0  0  0  0  0  0
   -7.5770   61.0540   73.6960 C   0  0  2  0  0  0  0  0  0  0  0  0
   -8.6810   61.9240   73.0890 C   0  0  1  0  0  0  0  0  0  0  0  0
   -8.8450   63.2220   73.8850 C   0  0  1  0  0  0  0  0  0  0  0  0
   -7.4810   59.8710   72.9110 O   0  0  0  0  0  0  0  0  0  0  0  0
   -8.3990   62.2430   71.7180 O   0  0  0  0  0  0  0  0  0  0  0  0
  -10.2190   63.6280   73.8420 O   0  0  0  0  0  0  0  0  0  0  0  0
   -9.9980   61.1970   76.0260 C   0  0  0  0  0  0  0  0  0  0  0  0
  -10.0760   59.7740   75.9190 O   0  0  0  0  0  0  0  0  0  0  0  0
   -4.1540   60.5170   76.5020 C   0  0  0  0  0  0  0  0  0  0  0  0
   -3.3650   59.9740   75.4460 O   0  0  0  0  0  0  0  0  0  0  0  0
   -1.2773   63.1139   77.0831 H   0  0  0  0  0  0  0  0  0  0  0  0
    0.9091   60.1973   76.6325 H   0  0  0  0  0  0  0  0  0  0  0  0
    0.5207   60.6416   78.7344 H   0  0  0  0  0  0  0  0  0  0  0  0
    1.5962   62.0423   78.4059 H   0  0  0  0  0  0  0  0  0  0  0  0
   -0.1869   62.2597   78.4059 H   0  0  0  0  0  0  0  0  0  0  0  0
    2.6005   62.0147   76.2531 H   0  0  0  0  0  0  0  0  0  0  0  0
    1.7904   63.9976   74.8730 H   0  0  0  0  0  0  0  0  0  0  0  0
   -0.6475   64.6346   75.2582 H   0  0  0  0  0  0  0  0  0  0  0  0
    1.0824   60.4938   74.4881 H   0  0  0  0  0  0  0  0  0  0  0  0
    1.1645   62.1027   73.7947 H   0  0  0  0  0  0  0  0  0  0  0  0
    3.6832   60.9716   74.4807 H   0  0  0  0  0  0  0  0  0  0  0  0
    2.5251   58.8667   73.5960 H   0  0  0  0  0  0  0  0  0  0  0  0
    4.7890   60.3024   70.4068 H   0  0  0  0  0  0  0  0  0  0  0  0
    4.6419   62.6983   71.1503 H   0  0  0  0  0  0  0  0  0  0  0  0
    3.7064   63.0762   73.4514 H   0  0  0  0  0  0  0  0  0  0  0  0
    2.1210   61.4904   70.6525 H   0  0  0  0  0  0  0  0  0  0  0  0
    5.3916   61.5741   73.5294 H   0  0  0  0  0  0  0  0  0  0  0  0
    1.5006   63.1525   72.8052 H   0  0  0  0  0  0  0  0  0  0  0  0
    3.8835   57.4832   71.6247 H   0  0  0  0  0  0  0  0  0  0  0  0
    2.2393   57.8390   71.0499 H   0  0  0  0  0  0  0  0  0  0  0  0
    4.7097   58.7575   69.8273 H   0  0  0  0  0  0  0  0  0  0  0  0
    1.1956   63.6273   77.6237 H   0  0  0  0  0  0  0  0  0  0  0  0
   -0.4303   62.1242   73.8114 H   0  0  0  0  0  0  0  0  0  0  0  0
   -4.9542   61.9524   75.0807 H   0  0  0  0  0  0  0  0  0  0  0  0
   -7.2411   63.5410   77.4468 H   0  0  0  0  0  0  0  0  0  0  0  0
   -5.1580   64.6360   77.9172 H   0  0  0  0  0  0  0  0  0  0  0  0
   -4.4673   64.3738   74.9296 H   0  0  0  0  0  0  0  0  0  0  0  0
   -3.1857   62.9922   77.3398 H   0  0  0  0  0  0  0  0  0  0  0  0
   -6.2486   66.3704   77.2886 H   0  0  0  0  0  0  0  0  0  0  0  0
   -3.1346   65.5385   77.2216 H   0  0  0  0  0  0  0  0  0  0  0  0
   -9.0199   63.7119   76.0021 H   0  0  0  0  0  0  0  0  0  0  0  0
   -8.0442   61.6545   76.8342 H   0  0  0  0  0  0  0  0  0  0  0  0
   -6.6508   61.6474   73.7038 H   0  0  0  0  0  0  0  0  0  0  0  0
   -9.6156   61.3456   73.1337 H   0  0  0  0  0  0  0  0  0  0  0  0
   -8.1978   63.9796   73.4190 H   0  0  0  0  0  0  0  0  0  0  0  0
   -7.4171   59.0834   73.5075 H   0  0  0  0  0  0  0  0  0  0  0  0
   -7.7438   62.9842   71.6797 H   0  0  0  0  0  0  0  0  0  0  0  0
  -10.5622   63.7294   74.7651 H   0  0  0  0  0  0  0  0  0  0  0  0
  -10.3604   61.5128   77.0154 H   0  0  0  0  0  0  0  0  0  0  0  0
  -10.6205   61.6627   75.2478 H   0  0  0  0  0  0  0  0  0  0  0  0
  -10.0978   59.3756   76.8251 H   0  0  0  0  0  0  0  0  0  0  0  0
   -3.5403   60.5818   77.4126 H   0  0  0  0  0  0  0  0  0  0  0  0
   -5.0198   59.8587   76.6663 H   0  0  0  0  0  0  0  0  0  0  0  0
   -2.6128   59.4564   75.8286 H   0  0  0  0  0  0  0  0  0  0  0  0
  2  1  1  0
  3  2  1  0
  4  3  1  0
  5  4  1  0
  6  4  1  0
  7  6  1  0
  8  2  1  0
  8  7  1  0
  9  6  1  0
 10  9  1  0
 11 10  1  0
 12 11  2  0
 13 12  1  0
 14 13  1  0
 15 14  1  0
 15 10  1  0
 16 13  1  0
 17 14  1  0
 18 15  1  0
 19 12  1  0
 20 19  1  0
 21  7  1  0
 22  8  1  0
 24 23  1  0
 25 24  1  0
 26 25  1  0
 27 26  1  0
 28 27  1  0
 28 23  1  0
 28  1  1  0
 29 26  1  0
 30 27  1  0
 31 25  1  0
 32 31  1  0
 33 32  1  0
 34 33  1  0
 35 34  1  0
 36 35  1  0
 37 36  1  0
 37 32  1  0
 38 35  1  0
 39 36  1  0
 40 37  1  0
 41 33  1  0
 42 41  1  0
 43 23  1  0
 44 43  1  0
  2 45  1  1
  4 46  1  1
  5 47  1  0
  5 48  1  0
  5 49  1  0
  6 50  1  1
  7 51  1  6
  8 52  1  6
  9 53  1  0
  9 54  1  0
 10 55  1  1
 11 56  1  0
 13 57  1  6
 14 58  1  6
 15 59  1  1
 16 60  1  0
 17 61  1  0
 18 62  1  0
 19 63  1  0
 19 64  1  0
 20 65  1  0
 21 66  1  0
 22 67  1  0
 23 68  1  6
 25 69  1  1
 26 70  1  1
 27 71  1  6
 28 72  1  1
 29 73  1  0
 30 74  1  0
 32 75  1  1
 33 76  1  1
 35 77  1  1
 36 78  1  6
 37 79  1  6
 38 80  1  0
 39 81  1  0
 40 82  1  0
 41 83  1  0
 41 84  1  0
 42 85  1  0
 43 86  1  0
 43 87  1  0
 44 88  1  0
M  CHG  1   9   1
M  END
>  <score>  (2) 
-7.002

$$$$
=
     RDKit          3D

 88 91  0  0  0  0  0  0  0  0999 V2000
   -2.7780   58.9840   76.2410 O   0  0  0  0  0  0  0  0  0  0  0  0
   -1.6470   58.1220   76.0410 C   0  0  1  0  0  0  0  0  0  0  0  0
   -1.5770   57.7760   74.6540 O   0  0  0  0  0  0  0  0  0  0  0  0
   -0.4390   56.9840   74.2910 C   0  0  2  0  0  0  0  0  0  0  0  0
   -0.4940   55.5760   74.8770 C   0  0  0  0  0  0  0  0  0  0  0  0
    0.8570   57.7780   74.5900 C   0  0  2  0  0  0  0  0  0  0  0  0
    0.8970   58.2290   76.0740 C   0  0  1  0  0  0  0  0  0  0  0  0
   -0.4040   58.9470   76.4440 C   0  0  1  0  0  0  0  0  0  0  0  0
    0.8280   59.0320   73.7010 N   0  0  0  0  0  4  0  0  0  0  0  0
    2.1220   59.6770   73.2990 C   0  0  1  0  0  0  0  0  0  0  0  0
    2.5810   59.2600   71.9280 C   0  0  0  0  0  0  0  0  0  0  0  0
    2.9980   60.1310   70.9880 C   0  0  0  0  0  0  0  0  0  0  0  0
    3.0940   61.6150   71.2660 C   0  0  2  0  0  0  0  0  0  0  0  0
    3.1570   61.9430   72.7750 C   0  0  1  0  0  0  0  0  0  0  0  0
    2.0220   61.2180   73.5170 C   0  0  1  0  0  0  0  0  0  0  0  0
    1.9140   62.2120   70.7250 O   0  0  0  0  0  0  0  0  0  0  0  0
    4.4090   61.5530   73.3410 O   0  0  0  0  0  0  0  0  0  0  0  0
    0.7280   61.7170   73.1390 O   0  0  0  0  0  0  0  0  0  0  0  0
    3.3950   59.7080   69.6040 C   0  0  0  0  0  0  0  0  0  0  0  0
    3.7870   58.3440   69.6840 O   0  0  0  0  0  0  0  0  0  0  0  0
    1.1450   57.1210   76.9320 O   0  0  0  0  0  0  0  0  0  0  0  0
   -0.4190   60.2120   75.7270 O   0  0  0  0  0  0  0  0  0  0  0  0
   -4.1810   60.3600   74.8140 C   0  0  1  0  0  0  0  0  0  0  0  0
   -5.1630   60.3640   73.7610 O   0  0  0  0  0  0  0  0  0  0  0  0
   -6.3320   59.6120   74.0690 C   0  0  1  0  0  0  0  0  0  0  0  0
   -5.9790   58.1500   74.4050 C   0  0  1  0  0  0  0  0  0  0  0  0
   -4.9250   58.0810   75.5120 C   0  0  2  0  0  0  0  0  0  0  0  0
   -3.7020   58.9310   75.1360 C   0  0  2  0  0  0  0  0  0  0  0  0
   -7.1280   57.4000   74.8280 O   0  0  0  0  0  0  0  0  0  0  0  0
   -4.5490   56.7070   75.7140 O   0  0  0  0  0  0  0  0  0  0  0  0
   -7.0590   60.1710   75.1720 O   0  0  0  0  0  0  0  0  0  0  0  0
   -8.1640   61.0160   74.7620 C   0  0  2  0  0  0  0  0  0  0  0  0
   -7.6220   62.3470   74.2090 C   0  0  2  0  0  0  0  0  0  0  0  0
   -6.8920   63.1360   75.1760 O   0  0  0  0  0  0  0  0  0  0  0  0
   -7.1750   62.8560   76.5400 C   0  0  2  0  0  0  0  0  0  0  0  0
   -8.6430   62.5000   76.7910 C   0  0  1  0  0  0  0  0  0  0  0  0
   -9.0320   61.2380   76.0140 C   0  0  1  0  0  0  0  0  0  0  0  0
   -6.8840   64.0320   77.2860 O   0  0  0  0  0  0  0  0  0  0  0  0
   -8.8980   62.2920   78.1880 O   0  0  0  0  0  0  0  0  0  0  0  0
  -10.4110   61.3280   75.6330 O   0  0  0  0  0  0  0  0  0  0  0  0
   -8.7110   63.2240   73.5720 C   0  0  0  0  0  0  0  0  0  0  0  0
   -9.5740   62.3980   72.7860 O   0  0  0  0  0  0  0  0  0  0  0  0
   -3.0260   61.2660   74.3650 C   0  0  0  0  0  0  0  0  0  0  0  0
   -2.0650   60.5320   73.6090 O   0  0  0  0  0  0  0  0  0  0  0  0
   -1.7151   57.1963   76.6313 H   0  0  0  0  0  0  0  0  0  0  0  0
   -0.4476   56.7979   73.2069 H   0  0  0  0  0  0  0  0  0  0  0  0
   -0.4917   55.6356   75.9754 H   0  0  0  0  0  0  0  0  0  0  0  0
   -1.4124   55.0738   74.5390 H   0  0  0  0  0  0  0  0  0  0  0  0
    0.3825   55.0037   74.5390 H   0  0  0  0  0  0  0  0  0  0  0  0
    1.7372   57.1482   74.3935 H   0  0  0  0  0  0  0  0  0  0  0  0
    1.7264   58.9393   76.2065 H   0  0  0  0  0  0  0  0  0  0  0  0
   -0.4422   59.0924   77.5337 H   0  0  0  0  0  0  0  0  0  0  0  0
    0.3385   58.7734   72.8324 H   0  0  0  0  0  0  0  0  0  0  0  0
    0.3757   59.7417   74.2948 H   0  0  0  0  0  0  0  0  0  0  0  0
    2.9283   59.3121   73.9523 H   0  0  0  0  0  0  0  0  0  0  0  0
    2.5759   58.1883   71.6801 H   0  0  0  0  0  0  0  0  0  0  0  0
    4.0207   61.9982   70.8139 H   0  0  0  0  0  0  0  0  0  0  0  0
    3.0458   63.0317   72.8860 H   0  0  0  0  0  0  0  0  0  0  0  0
    2.1408   61.4236   74.5911 H   0  0  0  0  0  0  0  0  0  0  0  0
    1.3261   62.5094   71.4639 H   0  0  0  0  0  0  0  0  0  0  0  0
    4.3451   61.5729   74.3287 H   0  0  0  0  0  0  0  0  0  0  0  0
    0.2019   61.9199   73.9528 H   0  0  0  0  0  0  0  0  0  0  0  0
    2.5432   59.8168   68.9166 H   0  0  0  0  0  0  0  0  0  0  0  0
    4.2172   60.3316   69.2231 H   0  0  0  0  0  0  0  0  0  0  0  0
    3.8635   58.0778   70.6345 H   0  0  0  0  0  0  0  0  0  0  0  0
    1.0796   57.4132   77.8756 H   0  0  0  0  0  0  0  0  0  0  0  0
   -0.4279   60.9593   76.3763 H   0  0  0  0  0  0  0  0  0  0  0  0
   -4.6179   60.7431   75.7480 H   0  0  0  0  0  0  0  0  0  0  0  0
   -6.9655   59.6479   73.1705 H   0  0  0  0  0  0  0  0  0  0  0  0
   -5.5846   57.7083   73.4780 H   0  0  0  0  0  0  0  0  0  0  0  0
   -5.3414   58.4837   76.4471 H   0  0  0  0  0  0  0  0  0  0  0  0
   -3.1969   58.4858   74.2661 H   0  0  0  0  0  0  0  0  0  0  0  0
   -7.1618   57.3779   75.8172 H   0  0  0  0  0  0  0  0  0  0  0  0
   -4.4973   56.5183   76.6845 H   0  0  0  0  0  0  0  0  0  0  0  0
   -8.7612   60.5537   73.9622 H   0  0  0  0  0  0  0  0  0  0  0  0
   -6.9154   62.0265   73.4293 H   0  0  0  0  0  0  0  0  0  0  0  0
   -6.5669   61.9891   76.8377 H   0  0  0  0  0  0  0  0  0  0  0  0
   -9.2505   63.3483   76.4426 H   0  0  0  0  0  0  0  0  0  0  0  0
   -8.8646   60.3768   76.6776 H   0  0  0  0  0  0  0  0  0  0  0  0
   -6.9341   63.8297   78.2538 H   0  0  0  0  0  0  0  0  0  0  0  0
   -8.2526   62.8184   78.7232 H   0  0  0  0  0  0  0  0  0  0  0  0
  -10.9760   61.3649   76.4451 H   0  0  0  0  0  0  0  0  0  0  0  0
   -9.2941   63.7197   74.3621 H   0  0  0  0  0  0  0  0  0  0  0  0
   -8.2454   63.9887   72.9329 H   0  0  0  0  0  0  0  0  0  0  0  0
  -10.1438   61.8526   73.3844 H   0  0  0  0  0  0  0  0  0  0  0  0
   -3.4278   62.0795   73.7431 H   0  0  0  0  0  0  0  0  0  0  0  0
   -2.5317   61.6729   75.2594 H   0  0  0  0  0  0  0  0  0  0  0  0
   -1.4494   60.0618   74.2255 H   0  0  0  0  0  0  0  0  0  0  0  0
  2  1  1  0
  3  2  1  0
  4  3  1  0
  5  4  1  0
  6  4  1  0
  7  6  1  0
  8  2  1  0
  8  7  1  0
  9  6  1  0
 10  9  1  0
 11 10  1  0
 12 11  2  0
 13 12  1  0
 14 13  1  0
 15 14  1  0
 15 10  1  0
 16 13  1  0
 17 14  1  0
 18 15  1  0
 19 12  1  0
 20 19  1  0
 21  7  1  0
 22  8  1  0
 24 23  1  0
 25 24  1  0
 26 25  1  0
 27 26  1  0
 28 27  1  0
 28 23  1  0
 28  1  1  0
 29 26  1  0
 30 27  1  0
 31 25  1  0
 32 31  1  0
 33 32  1  0
 34 33  1  0
 35 34  1  0
 36 35  1  0
 37 36  1  0
 37 32  1  0
 38 35  1  0
 39 36  1  0
 40 37  1  0
 41 33  1  0
 42 41  1  0
 43 23  1  0
 44 43  1  0
  2 45  1  1
  4 46  1  6
  5 47  1  0
  5 48  1  0
  5 49  1  0
  6 50  1  6
  7 51  1  6
  8 52  1  1
  9 53  1  0
  9 54  1  0
 10 55  1  1
 11 56  1  0
 13 57  1  6
 14 58  1  6
 15 59  1  1
 16 60  1  0
 17 61  1  0
 18 62  1  0
 19 63  1  0
 19 64  1  0
 20 65  1  0
 21 66  1  0
 22 67  1  0
 23 68  1  1
 25 69  1  6
 26 70  1  6
 27 71  1  1
 28 72  1  6
 29 73  1  0
 30 74  1  0
 32 75  1  6
 33 76  1  6
 35 77  1  1
 36 78  1  6
 37 79  1  1
 38 80  1  0
 39 81  1  0
 40 82  1  0
 41 83  1  0
 41 84  1  0
 42 85  1  0
 43 86  1  0
 43 87  1  0
 44 88  1  0
M  CHG  1   9   1
M  END
>  <score>  (3) 
-6.998

$$$$
=
     RDKit          3D

 88 91  0  0  0  0  0  0  0  0999 V2000
   -2.3170   62.7140   75.1460 O   0  0  0  0  0  0  0  0  0  0  0  0
   -1.0870   62.1290   75.6010 C   0  0  1  0  0  0  0  0  0  0  0  0
   -0.8680   60.9100   74.8830 O   0  0  0  0  0  0  0  0  0  0  0  0
    0.3750   60.2580   75.1750 C   0  0  2  0  0  0  0  0  0  0  0  0
    0.4270   59.7020   76.5960 C   0  0  0  0  0  0  0  0  0  0  0  0
    1.5490   61.1910   74.7840 C   0  0  2  0  0  0  0  0  0  0  0  0
    1.4200   62.5660   75.4900 C   0  0  1  0  0  0  0  0  0  0  0  0
    0.0220   63.1500   75.2610 C   0  0  1  0  0  0  0  0  0  0  0  0
    1.4550   61.4140   73.2650 N   0  0  0  0  0  4  0  0  0  0  0  0
    2.7170   61.5450   72.4640 C   0  0  1  0  0  0  0  0  0  0  0  0
    2.9470   60.3780   71.5420 C   0  0  0  0  0  0  0  0  0  0  0  0
    3.2800   60.5120   70.2430 C   0  0  0  0  0  0  0  0  0  0  0  0
    3.5100   61.8710   69.6170 C   0  0  2  0  0  0  0  0  0  0  0  0
    3.8090   62.9720   70.6600 C   0  0  1  0  0  0  0  0  0  0  0  0
    2.7480   62.9430   71.7730 C   0  0  1  0  0  0  0  0  0  0  0  0
    2.3050   62.2170   68.9310 O   0  0  0  0  0  0  0  0  0  0  0  0
    5.1020   62.7990   71.2430 O   0  0  0  0  0  0  0  0  0  0  0  0
    1.4480   63.3140   71.2850 O   0  0  0  0  0  0  0  0  0  0  0  0
    3.4470   59.3410   69.3190 C   0  0  0  0  0  0  0  0  0  0  0  0
    3.8260   58.2320   70.1210 O   0  0  0  0  0  0  0  0  0  0  0  0
    1.7170   62.4500   76.8780 O   0  0  0  0  0  0  0  0  0  0  0  0
   -0.0720   63.5040   73.8540 O   0  0  0  0  0  0  0  0  0  0  0  0
   -4.6150   62.1350   75.6780 C   0  0  1  0  0  0  0  0  0  0  0  0
   -5.6670   62.2260   76.6560 O   0  0  0  0  0  0  0  0  0  0  0  0
   -5.9910   63.5630   77.0220 C   0  0  1  0  0  0  0  0  0  0  0  0
   -4.7540   64.3060   77.5620 C   0  0  1  0  0  0  0  0  0  0  0  0
   -3.5930   64.2320   76.5690 C   0  0  2  0  0  0  0  0  0  0  0  0
   -3.3080   62.7710   76.1910 C   0  0  2  0  0  0  0  0  0  0  0  0
   -5.0300   65.6890   77.8330 O   0  0  0  0  0  0  0  0  0  0  0  0
   -2.4330   64.8420   77.1610 O   0  0  0  0  0  0  0  0  0  0  0  0
   -6.5280   64.3090   75.9210 O   0  0  0  0  0  0  0  0  0  0  0  0
   -7.7990   63.7990   75.4460 C   0  0  2  0  0  0  0  0  0  0  0  0
   -7.7570   63.6460   73.9130 C   0  0  2  0  0  0  0  0  0  0  0  0
   -7.5680   64.8890   73.2010 O   0  0  0  0  0  0  0  0  0  0  0  0
   -7.9270   66.0670   73.9090 C   0  0  2  0  0  0  0  0  0  0  0  0
   -9.1480   65.8790   74.8140 C   0  0  1  0  0  0  0  0  0  0  0  0
   -8.8700   64.8160   75.8810 C   0  0  1  0  0  0  0  0  0  0  0  0
   -8.2550   67.0620   72.9460 O   0  0  0  0  0  0  0  0  0  0  0  0
   -9.5160   67.1080   75.4560 O   0  0  0  0  0  0  0  0  0  0  0  0
  -10.0900   64.1290   76.1880 O   0  0  0  0  0  0  0  0  0  0  0  0
   -8.9900   62.9280   73.3450 C   0  0  0  0  0  0  0  0  0  0  0  0
   -9.3630   61.8690   74.2310 O   0  0  0  0  0  0  0  0  0  0  0  0
   -4.4360   60.6500   75.3360 C   0  0  0  0  0  0  0  0  0  0  0  0
   -3.7260   60.4890   74.1100 O   0  0  0  0  0  0  0  0  0  0  0  0
   -1.1016   61.9044   76.6777 H   0  0  0  0  0  0  0  0  0  0  0  0
    0.4734   59.3543   74.5556 H   0  0  0  0  0  0  0  0  0  0  0  0
    0.3496   60.5295   77.3166 H   0  0  0  0  0  0  0  0  0  0  0  0
   -0.4098   59.0043   76.7476 H   0  0  0  0  0  0  0  0  0  0  0  0
    1.3787   59.1716   76.7476 H   0  0  0  0  0  0  0  0  0  0  0  0
    2.5053   60.7356   75.0810 H   0  0  0  0  0  0  0  0  0  0  0  0
    2.1534   63.2595   75.0528 H   0  0  0  0  0  0  0  0  0  0  0  0
   -0.1202   64.0229   75.9151 H   0  0  0  0  0  0  0  0  0  0  0  0
    0.9331   60.6160   72.8756 H   0  0  0  0  0  0  0  0  0  0  0  0
    1.0145   62.3412   73.1807 H   0  0  0  0  0  0  0  0  0  0  0  0
    3.5834   61.5015   73.1404 H   0  0  0  0  0  0  0  0  0  0  0  0
    2.8376   59.3623   71.9498 H   0  0  0  0  0  0  0  0  0  0  0  0
    4.3849   61.8092   68.9532 H   0  0  0  0  0  0  0  0  0  0  0  0
    3.7844   63.9412   70.1403 H   0  0  0  0  0  0  0  0  0  0  0  0
    3.0323   63.6939   72.5249 H   0  0  0  0  0  0  0  0  0  0  0  0
    1.5961   62.4205   69.5914 H   0  0  0  0  0  0  0  0  0  0  0  0
    5.0231   62.8096   72.2298 H   0  0  0  0  0  0  0  0  0  0  0  0
    0.8448   63.4861   72.0509 H   0  0  0  0  0  0  0  0  0  0  0  0
    2.4990   59.1282   68.8033 H   0  0  0  0  0  0  0  0  0  0  0  0
    4.2078   59.5502   68.5525 H   0  0  0  0  0  0  0  0  0  0  0  0
    3.7436   58.4731   71.0777 H   0  0  0  0  0  0  0  0  0  0  0  0
    0.9385   62.7541   77.4086 H   0  0  0  0  0  0  0  0  0  0  0  0
   -0.3252   64.4574   73.7698 H   0  0  0  0  0  0  0  0  0  0  0  0
   -4.8830   62.6993   74.7726 H   0  0  0  0  0  0  0  0  0  0  0  0
   -6.7564   63.4893   77.8086 H   0  0  0  0  0  0  0  0  0  0  0  0
   -4.4804   63.8047   78.5021 H   0  0  0  0  0  0  0  0  0  0  0  0
   -3.8565   64.7731   75.6482 H   0  0  0  0  0  0  0  0  0  0  0  0
   -2.9326   62.2294   77.0718 H   0  0  0  0  0  0  0  0  0  0  0  0
   -5.0590   65.8341   78.8119 H   0  0  0  0  0  0  0  0  0  0  0  0
   -2.5069   64.8031   78.1475 H   0  0  0  0  0  0  0  0  0  0  0  0
   -8.0255   62.8069   75.8637 H   0  0  0  0  0  0  0  0  0  0  0  0
   -6.8679   63.0205   73.7451 H   0  0  0  0  0  0  0  0  0  0  0  0
   -7.0769   66.3443   74.5497 H   0  0  0  0  0  0  0  0  0  0  0  0
   -9.9812   65.5498   74.1758 H   0  0  0  0  0  0  0  0  0  0  0  0
   -8.4787   65.3336   76.7693 H   0  0  0  0  0  0  0  0  0  0  0  0
   -8.5288   67.8926   73.4099 H   0  0  0  0  0  0  0  0  0  0  0  0
   -9.4808   66.9906   76.4384 H   0  0  0  0  0  0  0  0  0  0  0  0
  -10.1967   64.0689   77.1704 H   0  0  0  0  0  0  0  0  0  0  0  0
   -9.8220   63.6416   73.2527 H   0  0  0  0  0  0  0  0  0  0  0  0
   -8.7551   62.5160   72.3525 H   0  0  0  0  0  0  0  0  0  0  0  0
   -9.2570   62.1700   75.1681 H   0  0  0  0  0  0  0  0  0  0  0  0
   -3.8733   60.1602   76.1443 H   0  0  0  0  0  0  0  0  0  0  0  0
   -5.4309   60.1936   75.2269 H   0  0  0  0  0  0  0  0  0  0  0  0
   -2.7790   60.2743   74.3028 H   0  0  0  0  0  0  0  0  0  0  0  0
  2  1  1  0
  3  2  1  0
  4  3  1  0
  5  4  1  0
  6  4  1  0
  7  6  1  0
  8  2  1  0
  8  7  1  0
  9  6  1  0
 10  9  1  0
 11 10  1  0
 12 11  2  0
 13 12  1  0
 14 13  1  0
 15 14  1  0
 15 10  1  0
 16 13  1  0
 17 14  1  0
 18 15  1  0
 19 12  1  0
 20 19  1  0
 21  7  1  0
 22  8  1  0
 24 23  1  0
 25 24  1  0
 26 25  1  0
 27 26  1  0
 28 27  1  0
 28 23  1  0
 28  1  1  0
 29 26  1  0
 30 27  1  0
 31 25  1  0
 32 31  1  0
 33 32  1  0
 34 33  1  0
 35 34  1  0
 36 35  1  0
 37 36  1  0
 37 32  1  0
 38 35  1  0
 39 36  1  0
 40 37  1  0
 41 33  1  0
 42 41  1  0
 43 23  1  0
 44 43  1  0
  2 45  1  1
  4 46  1  6
  5 47  1  0
  5 48  1  0
  5 49  1  0
  6 50  1  6
  7 51  1  6
  8 52  1  1
  9 53  1  0
  9 54  1  0
 10 55  1  1
 11 56  1  0
 13 57  1  6
 14 58  1  6
 15 59  1  1
 16 60  1  0
 17 61  1  0
 18 62  1  0
 19 63  1  0
 19 64  1  0
 20 65  1  0
 21 66  1  0
 22 67  1  0
 23 68  1  6
 25 69  1  1
 26 70  1  1
 27 71  1  6
 28 72  1  1
 29 73  1  0
 30 74  1  0
 32 75  1  1
 33 76  1  1
 35 77  1  1
 36 78  1  6
 37 79  1  1
 38 80  1  0
 39 81  1  0
 40 82  1  0
 41 83  1  0
 41 84  1  0
 42 85  1  0
 43 86  1  0
 43 87  1  0
 44 88  1  0
M  CHG  1   9   1
M  END
>  <score>  (4) 
-6.893

$$$$
=
     RDKit          3D

 88 91  0  0  0  0  0  0  0  0999 V2000
   -2.4800   62.6800   75.3050 O   0  0  0  0  0  0  0  0  0  0  0  0
   -1.3580   62.2070   76.0660 C   0  0  1  0  0  0  0  0  0  0  0  0
   -1.1240   60.8360   75.7290 O   0  0  0  0  0  0  0  0  0  0  0  0
    0.0280   60.2530   76.3540 C   0  0  2  0  0  0  0  0  0  0  0  0
   -0.1410   60.0960   77.8630 C   0  0  0  0  0  0  0  0  0  0  0  0
    1.2980   61.0170   75.9030 C   0  0  2  0  0  0  0  0  0  0  0  0
    1.1640   62.5340   76.2000 C   0  0  1  0  0  0  0  0  0  0  0  0
   -0.1530   63.0710   75.6310 C   0  0  1  0  0  0  0  0  0  0  0  0
    1.4160   60.8280   74.3810 N   0  0  0  0  0  4  0  0  0  0  0  0
    2.7710   60.6220   73.7710 C   0  0  1  0  0  0  0  0  0  0  0  0
    2.8520   59.3710   72.9390 C   0  0  0  0  0  0  0  0  0  0  0  0
    3.3790   59.3370   71.6990 C   0  0  0  0  0  0  0  0  0  0  0  0
    3.9940   60.5650   71.0620 C   0  0  2  0  0  0  0  0  0  0  0  0
    4.3920   61.6440   72.0940 C   0  0  1  0  0  0  0  0  0  0  0  0
    3.2120   61.9270   73.0380 C   0  0  1  0  0  0  0  0  0  0  0  0
    3.0030   61.1170   70.1930 O   0  0  0  0  0  0  0  0  0  0  0  0
    5.5210   61.2340   72.8680 O   0  0  0  0  0  0  0  0  0  0  0  0
    2.1080   62.5390   72.3490 O   0  0  0  0  0  0  0  0  0  0  0  0
    3.3990   58.0950   70.8550 C   0  0  0  0  0  0  0  0  0  0  0  0
    3.7680   58.4940   69.5420 O   0  0  0  0  0  0  0  0  0  0  0  0
    1.2710   62.7850   77.5970 O   0  0  0  0  0  0  0  0  0  0  0  0
   -0.0410   63.0390   74.1820 O   0  0  0  0  0  0  0  0  0  0  0  0
   -4.8570   62.2180   75.4850 C   0  0  1  0  0  0  0  0  0  0  0  0
   -6.0630   62.4670   76.2310 O   0  0  0  0  0  0  0  0  0  0  0  0
   -6.3930   63.8480   76.3350 C   0  0  1  0  0  0  0  0  0  0  0  0
   -5.2440   64.6470   76.9800 C   0  0  1  0  0  0  0  0  0  0  0  0
   -3.9280   64.4110   76.2360 C   0  0  2  0  0  0  0  0  0  0  0  0
   -3.6390   62.9060   76.1320 C   0  0  2  0  0  0  0  0  0  0  0  0
   -5.5080   66.0580   76.9930 O   0  0  0  0  0  0  0  0  0  0  0  0
   -2.8690   65.0870   76.9360 O   0  0  0  0  0  0  0  0  0  0  0  0
   -6.6950   64.4290   75.0590 O   0  0  0  0  0  0  0  0  0  0  0  0
   -7.9930   65.0730   75.0130 C   0  0  2  0  0  0  0  0  0  0  0  0
   -9.0910   64.0540   75.3700 C   0  0  2  0  0  0  0  0  0  0  0  0
   -9.1950   62.9490   74.4440 O   0  0  0  0  0  0  0  0  0  0  0  0
   -8.6630   63.1780   73.1470 C   0  0  2  0  0  0  0  0  0  0  0  0
   -8.8710   64.6120   72.6550 C   0  0  1  0  0  0  0  0  0  0  0  0
   -8.1640   65.6080   73.5790 C   0  0  1  0  0  0  0  0  0  0  0  0
   -9.3440   62.3110   72.2470 O   0  0  0  0  0  0  0  0  0  0  0  0
   -8.3810   64.7810   71.3160 O   0  0  0  0  0  0  0  0  0  0  0  0
   -8.9100   66.8320   73.6090 O   0  0  0  0  0  0  0  0  0  0  0  0
  -10.4780   64.6960   75.5360 C   0  0  0  0  0  0  0  0  0  0  0  0
  -10.3280   65.9740   76.1580 O   0  0  0  0  0  0  0  0  0  0  0  0
   -4.6790   60.6960   75.4000 C   0  0  0  0  0  0  0  0  0  0  0  0
   -3.7300   60.3480   74.3940 O   0  0  0  0  0  0  0  0  0  0  0  0
   -1.5258   62.2790   77.1507 H   0  0  0  0  0  0  0  0  0  0  0  0
    0.1506   59.2144   76.0129 H   0  0  0  0  0  0  0  0  0  0  0  0
    0.5695   60.7560   78.3822 H   0  0  0  0  0  0  0  0  0  0  0  0
   -1.1684   60.3674   78.1471 H   0  0  0  0  0  0  0  0  0  0  0  0
    0.0542   59.0514   78.1471 H   0  0  0  0  0  0  0  0  0  0  0  0
    2.1777   60.6334   76.4406 H   0  0  0  0  0  0  0  0  0  0  0  0
    1.9893   63.0669   75.7052 H   0  0  0  0  0  0  0  0  0  0  0  0
   -0.3247   64.0903   76.0072 H   0  0  0  0  0  0  0  0  0  0  0  0
    0.8473   60.0052   74.1351 H   0  0  0  0  0  0  0  0  0  0  0  0
    1.1104   61.7339   73.9977 H   0  0  0  0  0  0  0  0  0  0  0  0
    3.5052   60.4378   74.5691 H   0  0  0  0  0  0  0  0  0  0  0  0
    2.4607   58.4354   73.3650 H   0  0  0  0  0  0  0  0  0  0  0  0
    4.9136   60.2664   70.5373 H   0  0  0  0  0  0  0  0  0  0  0  0
    4.6593   62.5554   71.5391 H   0  0  0  0  0  0  0  0  0  0  0  0
    3.5550   62.6485   73.7941 H   0  0  0  0  0  0  0  0  0  0  0  0
    2.2783   61.5207   70.7333 H   0  0  0  0  0  0  0  0  0  0  0  0
    5.3065   61.3119   73.8313 H   0  0  0  0  0  0  0  0  0  0  0  0
    1.4635   62.8963   73.0102 H   0  0  0  0  0  0  0  0  0  0  0  0
    4.1330   57.3789   71.2531 H   0  0  0  0  0  0  0  0  0  0  0  0
    2.4151   57.6030   70.8551 H   0  0  0  0  0  0  0  0  0  0  0  0
    4.4392   59.2198   69.5941 H   0  0  0  0  0  0  0  0  0  0  0  0
    0.9366   62.0005   78.0998 H   0  0  0  0  0  0  0  0  0  0  0  0
    0.8790   62.7761   73.9279 H   0  0  0  0  0  0  0  0  0  0  0  0
   -4.9356   62.6445   74.4741 H   0  0  0  0  0  0  0  0  0  0  0  0
   -7.2890   63.9022   76.9708 H   0  0  0  0  0  0  0  0  0  0  0  0
   -5.1636   64.2880   78.0167 H   0  0  0  0  0  0  0  0  0  0  0  0
   -4.0007   64.8122   75.2144 H   0  0  0  0  0  0  0  0  0  0  0  0
   -3.4498   62.4976   77.1357 H   0  0  0  0  0  0  0  0  0  0  0  0
   -5.5671   66.3740   77.9293 H   0  0  0  0  0  0  0  0  0  0  0  0
   -3.0089   64.9977   77.9120 H   0  0  0  0  0  0  0  0  0  0  0  0
   -8.0704   65.8967   75.7379 H   0  0  0  0  0  0  0  0  0  0  0  0
   -8.7597   63.6546   76.3399 H   0  0  0  0  0  0  0  0  0  0  0  0
   -7.5792   62.9953   73.1917 H   0  0  0  0  0  0  0  0  0  0  0  0
   -9.9535   64.8070   72.6639 H   0  0  0  0  0  0  0  0  0  0  0  0
   -7.1546   65.7749   73.1748 H   0  0  0  0  0  0  0  0  0  0  0  0
   -9.8665   61.6458   72.7614 H   0  0  0  0  0  0  0  0  0  0  0  0
   -7.4455   65.1036   71.3452 H   0  0  0  0  0  0  0  0  0  0  0  0
   -9.0715   67.0970   74.5491 H   0  0  0  0  0  0  0  0  0  0  0  0
  -10.9479   64.8191   74.5491 H   0  0  0  0  0  0  0  0  0  0  0  0
  -11.1136   64.0511   76.1606 H   0  0  0  0  0  0  0  0  0  0  0  0
  -10.3407   65.8656   77.1420 H   0  0  0  0  0  0  0  0  0  0  0  0
   -4.3270   60.3201   76.3720 H   0  0  0  0  0  0  0  0  0  0  0  0
   -5.6474   60.2438   75.1398 H   0  0  0  0  0  0  0  0  0  0  0  0
   -2.8922   60.0408   74.8228 H   0  0  0  0  0  0  0  0  0  0  0  0
  2  1  1  0
  3  2  1  0
  4  3  1  0
  5  4  1  0
  6  4  1  0
  7  6  1  0
  8  2  1  0
  8  7  1  0
  9  6  1  0
 10  9  1  0
 11 10  1  0
 12 11  2  0
 13 12  1  0
 14 13  1  0
 15 14  1  0
 15 10  1  0
 16 13  1  0
 17 14  1  0
 18 15  1  0
 19 12  1  0
 20 19  1  0
 21  7  1  0
 22  8  1  0
 24 23  1  0
 25 24  1  0
 26 25  1  0
 27 26  1  0
 28 27  1  0
 28 23  1  0
 28  1  1  0
 29 26  1  0
 30 27  1  0
 31 25  1  0
 32 31  1  0
 33 32  1  0
 34 33  1  0
 35 34  1  0
 36 35  1  0
 37 36  1  0
 37 32  1  0
 38 35  1  0
 39 36  1  0
 40 37  1  0
 41 33  1  0
 42 41  1  0
 43 23  1  0
 44 43  1  0
  2 45  1  1
  4 46  1  6
  5 47  1  0
  5 48  1  0
  5 49  1  0
  6 50  1  1
  7 51  1  6
  8 52  1  1
  9 53  1  0
  9 54  1  0
 10 55  1  1
 11 56  1  0
 13 57  1  6
 14 58  1  6
 15 59  1  1
 16 60  1  0
 17 61  1  0
 18 62  1  0
 19 63  1  0
 19 64  1  0
 20 65  1  0
 21 66  1  0
 22 67  1  0
 23 68  1  6
 25 69  1  1
 26 70  1  1
 27 71  1  6
 28 72  1  1
 29 73  1  0
 30 74  1  0
 32 75  1  1
 33 76  1  1
 35 77  1  1
 36 78  1  6
 37 79  1  6
 38 80  1  0
 39 81  1  0
 40 82  1  0
 41 83  1  0
 41 84  1  0
 42 85  1  0
 43 86  1  0
 43 87  1  0
 44 88  1  0
M  CHG  1   9   1
M  END
>  <score>  (5) 
-6.867

$$$$
=
     RDKit          3D

 88 91  0  0  0  0  0  0  0  0999 V2000
    0.4290   65.7650   69.1900 O   0  0  0  0  0  0  0  0  0  0  0  0
    0.5900   67.1520   68.8560 C   0  0  1  0  0  0  0  0  0  0  0  0
    1.9250   67.3550   68.3820 O   0  0  0  0  0  0  0  0  0  0  0  0
    2.2030   68.6860   67.9270 C   0  0  2  0  0  0  0  0  0  0  0  0
    2.2030   69.7060   69.0620 C   0  0  0  0  0  0  0  0  0  0  0  0
    1.2790   69.0230   66.7300 C   0  0  2  0  0  0  0  0  0  0  0  0
   -0.2120   68.8260   67.1120 C   0  0  1  0  0  0  0  0  0  0  0  0
   -0.4220   67.4370   67.7230 C   0  0  1  0  0  0  0  0  0  0  0  0
    1.6280   68.0360   65.6040 N   0  0  0  0  0  4  0  0  0  0  0  0
    3.0680   67.8080   65.2490 C   0  0  1  0  0  0  0  0  0  0  0  0
    3.3710   66.3670   64.9360 C   0  0  0  0  0  0  0  0  0  0  0  0
    4.0680   65.9740   63.8520 C   0  0  0  0  0  0  0  0  0  0  0  0
    4.6600   66.9740   62.8820 C   0  0  2  0  0  0  0  0  0  0  0  0
    4.8170   68.3850   63.4910 C   0  0  1  0  0  0  0  0  0  0  0  0
    3.4960   68.8230   64.1450 C   0  0  1  0  0  0  0  0  0  0  0  0
    3.7590   67.0580   61.7770 O   0  0  0  0  0  0  0  0  0  0  0  0
    5.8560   68.4170   64.4710 O   0  0  0  0  0  0  0  0  0  0  0  0
    2.4520   69.0120   63.1740 O   0  0  0  0  0  0  0  0  0  0  0  0
    4.3110   64.5310   63.5180 C   0  0  0  0  0  0  0  0  0  0  0  0
    3.3780   63.7690   64.2720 O   0  0  0  0  0  0  0  0  0  0  0  0
   -0.6490   69.8560   67.9920 O   0  0  0  0  0  0  0  0  0  0  0  0
   -0.2330   66.4640   66.6590 O   0  0  0  0  0  0  0  0  0  0  0  0
    1.8410   64.0990   70.2550 C   0  0  1  0  0  0  0  0  0  0  0  0
    2.4570   63.6740   71.4850 O   0  0  0  0  0  0  0  0  0  0  0  0
    1.5280   63.4650   72.5440 C   0  0  1  0  0  0  0  0  0  0  0  0
    0.7060   64.7380   72.8220 C   0  0  1  0  0  0  0  0  0  0  0  0
    0.0360   65.2470   71.5440 C   0  0  2  0  0  0  0  0  0  0  0  0
    1.0810   65.4280   70.4320 C   0  0  2  0  0  0  0  0  0  0  0  0
   -0.3140   64.5180   73.8090 O   0  0  0  0  0  0  0  0  0  0  0  0
   -0.6270   66.4920   71.8280 O   0  0  0  0  0  0  0  0  0  0  0  0
    0.6230   62.3880   72.2640 O   0  0  0  0  0  0  0  0  0  0  0  0
    1.0690   61.1110   72.7870 C   0  0  2  0  0  0  0  0  0  0  0  0
   -0.1520   60.2360   73.1300 C   0  0  2  0  0  0  0  0  0  0  0  0
   -0.9990   60.7840   74.1650 O   0  0  0  0  0  0  0  0  0  0  0  0
   -0.3850   61.7300   75.0280 C   0  0  2  0  0  0  0  0  0  0  0  0
    1.0820   61.4110   75.3280 C   0  0  1  0  0  0  0  0  0  0  0  0
    1.9100   61.4220   74.0380 C   0  0  1  0  0  0  0  0  0  0  0  0
   -1.0920   61.7020   76.2640 O   0  0  0  0  0  0  0  0  0  0  0  0
    1.6420   62.3510   76.2560 O   0  0  0  0  0  0  0  0  0  0  0  0
    2.9700   60.4640   74.1550 O   0  0  0  0  0  0  0  0  0  0  0  0
    0.2270   58.7950   73.5060 C   0  0  0  0  0  0  0  0  0  0  0  0
    1.4020   58.4180   72.7850 O   0  0  0  0  0  0  0  0  0  0  0  0
    2.9520   64.2090   69.2020 C   0  0  0  0  0  0  0  0  0  0  0  0
    3.0890   62.9900   68.4740 O   0  0  0  0  0  0  0  0  0  0  0  0
    0.4182   67.8145   69.7171 H   0  0  0  0  0  0  0  0  0  0  0  0
    3.2350   68.7413   67.5503 H   0  0  0  0  0  0  0  0  0  0  0  0
    3.2401   69.9511   69.3347 H   0  0  0  0  0  0  0  0  0  0  0  0
    1.6845   70.6191   68.7344 H   0  0  0  0  0  0  0  0  0  0  0  0
    1.6845   69.2831   69.9351 H   0  0  0  0  0  0  0  0  0  0  0  0
    1.4249   70.0700   66.4260 H   0  0  0  0  0  0  0  0  0  0  0  0
   -0.8234   68.8925   66.2000 H   0  0  0  0  0  0  0  0  0  0  0  0
   -1.4307   67.3788   68.1580 H   0  0  0  0  0  0  0  0  0  0  0  0
    1.2363   67.1222   65.8730 H   0  0  0  0  0  0  0  0  0  0  0  0
    1.2355   68.4785   64.7608 H   0  0  0  0  0  0  0  0  0  0  0  0
    3.6956   68.0083   66.1299 H   0  0  0  0  0  0  0  0  0  0  0  0
    3.0043   65.5948   65.6283 H   0  0  0  0  0  0  0  0  0  0  0  0
    5.6661   66.6334   62.5963 H   0  0  0  0  0  0  0  0  0  0  0  0
    5.0824   69.0742   62.6757 H   0  0  0  0  0  0  0  0  0  0  0  0
    3.6675   69.7994   64.6216 H   0  0  0  0  0  0  0  0  0  0  0  0
    2.8318   67.1444   62.1131 H   0  0  0  0  0  0  0  0  0  0  0  0
    5.4560   68.4047   65.3765 H   0  0  0  0  0  0  0  0  0  0  0  0
    1.5924   69.1676   63.6398 H   0  0  0  0  0  0  0  0  0  0  0  0
    4.1566   64.3607   62.4423 H   0  0  0  0  0  0  0  0  0  0  0  0
    5.3437   64.2397   63.7602 H   0  0  0  0  0  0  0  0  0  0  0  0
    3.5449   63.9053   65.2383 H   0  0  0  0  0  0  0  0  0  0  0  0
   -0.5249   69.5636   68.9297 H   0  0  0  0  0  0  0  0  0  0  0  0
   -0.0599   65.5728   67.0538 H   0  0  0  0  0  0  0  0  0  0  0  0
    1.0865   63.3672   69.9308 H   0  0  0  0  0  0  0  0  0  0  0  0
    2.1263   63.2055   73.4298 H   0  0  0  0  0  0  0  0  0  0  0  0
    1.4170   65.4864   73.2021 H   0  0  0  0  0  0  0  0  0  0  0  0
   -0.7055   64.5131   71.1954 H   0  0  0  0  0  0  0  0  0  0  0  0
    1.7738   66.2375   70.7054 H   0  0  0  0  0  0  0  0  0  0  0  0
    0.0786   64.6027   74.7139 H   0  0  0  0  0  0  0  0  0  0  0  0
   -0.6925   66.6149   72.8082 H   0  0  0  0  0  0  0  0  0  0  0  0
    1.6700   60.5522   72.0545 H   0  0  0  0  0  0  0  0  0  0  0  0
   -0.7273   60.2242   72.1925 H   0  0  0  0  0  0  0  0  0  0  0  0
   -0.4172   62.7095   74.5284 H   0  0  0  0  0  0  0  0  0  0  0  0
    1.1140   60.4078   75.7781 H   0  0  0  0  0  0  0  0  0  0  0  0
    2.3119   62.4379   73.9102 H   0  0  0  0  0  0  0  0  0  0  0  0
   -0.4464   61.7276   77.0141 H   0  0  0  0  0  0  0  0  0  0  0  0
    1.4618   62.0485   77.1813 H   0  0  0  0  0  0  0  0  0  0  0  0
    3.1575   60.2946   75.1122 H   0  0  0  0  0  0  0  0  0  0  0  0
    0.4229   58.7356   74.5868 H   0  0  0  0  0  0  0  0  0  0  0  0
   -0.5992   58.1154   73.2501 H   0  0  0  0  0  0  0  0  0  0  0  0
    2.1217   58.1871   73.4244 H   0  0  0  0  0  0  0  0  0  0  0  0
    2.7047   65.0204   68.5016 H   0  0  0  0  0  0  0  0  0  0  0  0
    3.9019   64.4191   69.7154 H   0  0  0  0  0  0  0  0  0  0  0  0
    3.1739   62.2346   69.1083 H   0  0  0  0  0  0  0  0  0  0  0  0
  2  1  1  0
  3  2  1  0
  4  3  1  0
  5  4  1  0
  6  4  1  0
  7  6  1  0
  8  2  1  0
  8  7  1  0
  9  6  1  0
 10  9  1  0
 11 10  1  0
 12 11  2  0
 13 12  1  0
 14 13  1  0
 15 14  1  0
 15 10  1  0
 16 13  1  0
 17 14  1  0
 18 15  1  0
 19 12  1  0
 20 19  1  0
 21  7  1  0
 22  8  1  0
 24 23  1  0
 25 24  1  0
 26 25  1  0
 27 26  1  0
 28 27  1  0
 28 23  1  0
 28  1  1  0
 29 26  1  0
 30 27  1  0
 31 25  1  0
 32 31  1  0
 33 32  1  0
 34 33  1  0
 35 34  1  0
 36 35  1  0
 37 36  1  0
 37 32  1  0
 38 35  1  0
 39 36  1  0
 40 37  1  0
 41 33  1  0
 42 41  1  0
 43 23  1  0
 44 43  1  0
  2 45  1  1
  4 46  1  6
  5 47  1  0
  5 48  1  0
  5 49  1  0
  6 50  1  6
  7 51  1  6
  8 52  1  1
  9 53  1  0
  9 54  1  0
 10 55  1  1
 11 56  1  0
 13 57  1  6
 14 58  1  6
 15 59  1  1
 16 60  1  0
 17 61  1  0
 18 62  1  0
 19 63  1  0
 19 64  1  0
 20 65  1  0
 21 66  1  0
 22 67  1  0
 23 68  1  6
 25 69  1  1
 26 70  1  1
 27 71  1  6
 28 72  1  1
 29 73  1  0
 30 74  1  0
 32 75  1  6
 33 76  1  6
 35 77  1  6
 36 78  1  1
 37 79  1  6
 38 80  1  0
 39 81  1  0
 40 82  1  0
 41 83  1  0
 41 84  1  0
 42 85  1  0
 43 86  1  0
 43 87  1  0
 44 88  1  0
M  CHG  1   9   1
M  END
>  <score>  (6) 
-6.867

$$$$
=
     RDKit          3D

 88 91  0  0  0  0  0  0  0  0999 V2000
   -0.1770   62.9750   75.8770 O   0  0  0  0  0  0  0  0  0  0  0  0
   -1.0700   63.8380   76.5980 C   0  0  1  0  0  0  0  0  0  0  0  0
   -2.2570   64.0180   75.8210 O   0  0  0  0  0  0  0  0  0  0  0  0
   -3.2800   64.7930   76.4600 C   0  0  2  0  0  0  0  0  0  0  0  0
   -2.8880   66.2590   76.6260 C   0  0  0  0  0  0  0  0  0  0  0  0
   -3.7330   64.0760   77.7560 C   0  0  2  0  0  0  0  0  0  0  0  0
   -2.5230   63.8050   78.6890 C   0  0  1  0  0  0  0  0  0  0  0  0
   -1.4050   63.1010   77.9140 C   0  0  1  0  0  0  0  0  0  0  0  0
   -4.3330   62.7240   77.3330 N   0  0  0  0  0  4  0  0  0  0  0  0
   -5.2360   62.6660   76.1360 C   0  0  1  0  0  0  0  0  0  0  0  0
   -5.1400   61.3590   75.3960 C   0  0  0  0  0  0  0  0  0  0  0  0
   -6.2160   60.6450   75.0080 C   0  0  0  0  0  0  0  0  0  0  0  0
   -7.6260   61.1440   75.2380 C   0  0  2  0  0  0  0  0  0  0  0  0
   -7.6950   62.6690   75.4770 C   0  0  1  0  0  0  0  0  0  0  0  0
   -6.6810   63.0770   76.5570 C   0  0  1  0  0  0  0  0  0  0  0  0
   -8.1100   60.4830   76.4080 O   0  0  0  0  0  0  0  0  0  0  0  0
   -7.4190   63.3970   74.2790 O   0  0  0  0  0  0  0  0  0  0  0  0
   -7.0230   62.5390   77.8460 O   0  0  0  0  0  0  0  0  0  0  0  0
   -6.1070   59.3130   74.3240 C   0  0  0  0  0  0  0  0  0  0  0  0
   -7.0150   58.4380   74.9770 O   0  0  0  0  0  0  0  0  0  0  0  0
   -2.0650   65.0140   79.2850 O   0  0  0  0  0  0  0  0  0  0  0  0
   -1.8740   61.7600   77.6030 O   0  0  0  0  0  0  0  0  0  0  0  0
   -0.1340   61.4710   73.9710 C   0  0  1  0  0  0  0  0  0  0  0  0
   -0.4030   61.3280   72.5630 O   0  0  0  0  0  0  0  0  0  0  0  0
    0.2960   62.2670   71.7520 C   0  0  1  0  0  0  0  0  0  0  0  0
   -0.0300   63.7140   72.1690 C   0  0  1  0  0  0  0  0  0  0  0  0
    0.2230   63.9230   73.6640 C   0  0  2  0  0  0  0  0  0  0  0  0
   -0.5340   62.8680   74.4840 C   0  0  2  0  0  0  0  0  0  0  0  0
    0.7480   64.6750   71.4400 O   0  0  0  0  0  0  0  0  0  0  0  0
   -0.1980   65.2500   74.0270 O   0  0  0  0  0  0  0  0  0  0  0  0
    1.7170   62.0820   71.8150 O   0  0  0  0  0  0  0  0  0  0  0  0
    2.2870   61.5800   70.5800 C   0  0  2  0  0  0  0  0  0  0  0  0
    2.9610   60.2180   70.8360 C   0  0  2  0  0  0  0  0  0  0  0  0
    4.0710   60.2740   71.7590 O   0  0  0  0  0  0  0  0  0  0  0  0
    4.6830   61.5460   71.9150 C   0  0  2  0  0  0  0  0  0  0  0  0
    4.7240   62.3580   70.6170 C   0  0  1  0  0  0  0  0  0  0  0  0
    3.3050   62.6340   70.1080 C   0  0  1  0  0  0  0  0  0  0  0  0
    6.0270   61.3270   72.3270 O   0  0  0  0  0  0  0  0  0  0  0  0
    5.4100   63.6050   70.8030 O   0  0  0  0  0  0  0  0  0  0  0  0
    3.3220   62.6780   68.6760 O   0  0  0  0  0  0  0  0  0  0  0  0
    3.4200   59.5220   69.5450 C   0  0  0  0  0  0  0  0  0  0  0  0
    3.8510   58.1950   69.8590 O   0  0  0  0  0  0  0  0  0  0  0  0
   -0.8950   60.3530   74.6960 C   0  0  0  0  0  0  0  0  0  0  0  0
   -0.2680   60.0280   75.9350 O   0  0  0  0  0  0  0  0  0  0  0  0
   -0.6292   64.8256   76.7989 H   0  0  0  0  0  0  0  0  0  0  0  0
   -4.1642   64.8493   75.8081 H   0  0  0  0  0  0  0  0  0  0  0  0
   -2.8230   66.5022   77.6968 H   0  0  0  0  0  0  0  0  0  0  0  0
   -1.9116   66.4336   76.1504 H   0  0  0  0  0  0  0  0  0  0  0  0
   -3.6469   66.8976   76.1504 H   0  0  0  0  0  0  0  0  0  0  0  0
   -4.4569   64.7026   78.2976 H   0  0  0  0  0  0  0  0  0  0  0  0
   -2.8443   63.1382   79.5027 H   0  0  0  0  0  0  0  0  0  0  0  0
   -0.4911   63.0851   78.5261 H   0  0  0  0  0  0  0  0  0  0  0  0
   -3.5433   62.0899   77.1452 H   0  0  0  0  0  0  0  0  0  0  0  0
   -4.9509   62.4739   78.1182 H   0  0  0  0  0  0  0  0  0  0  0  0
   -4.8982   63.4000   75.3896 H   0  0  0  0  0  0  0  0  0  0  0  0
   -4.1403   60.9658   75.1594 H   0  0  0  0  0  0  0  0  0  0  0  0
   -8.2249   60.9316   74.3401 H   0  0  0  0  0  0  0  0  0  0  0  0
   -8.7162   62.9100   75.8072 H   0  0  0  0  0  0  0  0  0  0  0  0
   -6.7155   64.1726   76.6496 H   0  0  0  0  0  0  0  0  0  0  0  0
   -7.7701   60.9472   77.2137 H   0  0  0  0  0  0  0  0  0  0  0  0
   -7.0778   64.2969   74.5109 H   0  0  0  0  0  0  0  0  0  0  0  0
   -6.6526   63.1216   78.5556 H   0  0  0  0  0  0  0  0  0  0  0  0
   -6.3738   59.4106   73.2613 H   0  0  0  0  0  0  0  0  0  0  0  0
   -5.0789   58.9256   74.3785 H   0  0  0  0  0  0  0  0  0  0  0  0
   -6.9169   58.5325   75.9576 H   0  0  0  0  0  0  0  0  0  0  0  0
   -2.0973   64.9288   80.2708 H   0  0  0  0  0  0  0  0  0  0  0  0
   -2.0463   61.2673   78.4442 H   0  0  0  0  0  0  0  0  0  0  0  0
    0.9445   61.3809   74.1679 H   0  0  0  0  0  0  0  0  0  0  0  0
   -0.0406   62.0909   70.7197 H   0  0  0  0  0  0  0  0  0  0  0  0
   -1.0947   63.8682   71.9393 H   0  0  0  0  0  0  0  0  0  0  0  0
    1.2960   63.8115   73.8790 H   0  0  0  0  0  0  0  0  0  0  0  0
   -1.6174   63.0255   74.3766 H   0  0  0  0  0  0  0  0  0  0  0  0
    1.2252   65.2644   72.0764 H   0  0  0  0  0  0  0  0  0  0  0  0
   -0.2233   65.3299   75.0134 H   0  0  0  0  0  0  0  0  0  0  0  0
    1.5206   61.4202   69.8073 H   0  0  0  0  0  0  0  0  0  0  0  0
    2.1623   59.6222   71.3019 H   0  0  0  0  0  0  0  0  0  0  0  0
    4.0907   62.1152   72.6466 H   0  0  0  0  0  0  0  0  0  0  0  0
    5.2713   61.7600   69.8735 H   0  0  0  0  0  0  0  0  0  0  0  0
    2.9848   63.5999   70.5258 H   0  0  0  0  0  0  0  0  0  0  0  0
    6.0720   61.3197   73.3160 H   0  0  0  0  0  0  0  0  0  0  0  0
    5.5094   63.7857   71.7713 H   0  0  0  0  0  0  0  0  0  0  0  0
    3.6621   63.5583   68.3769 H   0  0  0  0  0  0  0  0  0  0  0  0
    2.5836   59.4790   68.8319 H   0  0  0  0  0  0  0  0  0  0  0  0
    4.2503   60.0854   69.0943 H   0  0  0  0  0  0  0  0  0  0  0  0
    3.8871   58.0837   70.8421 H   0  0  0  0  0  0  0  0  0  0  0  0
   -1.9249   60.6866   74.8907 H   0  0  0  0  0  0  0  0  0  0  0  0
   -0.8942   59.4574   74.0574 H   0  0  0  0  0  0  0  0  0  0  0  0
   -0.8429   60.3260   76.6839 H   0  0  0  0  0  0  0  0  0  0  0  0
  2  1  1  0
  3  2  1  0
  4  3  1  0
  5  4  1  0
  6  4  1  0
  7  6  1  0
  8  2  1  0
  8  7  1  0
  9  6  1  0
 10  9  1  0
 11 10  1  0
 12 11  2  0
 13 12  1  0
 14 13  1  0
 15 14  1  0
 15 10  1  0
 16 13  1  0
 17 14  1  0
 18 15  1  0
 19 12  1  0
 20 19  1  0
 21  7  1  0
 22  8  1  0
 24 23  1  0
 25 24  1  0
 26 25  1  0
 27 26  1  0
 28 27  1  0
 28 23  1  0
 28  1  1  0
 29 26  1  0
 30 27  1  0
 31 25  1  0
 32 31  1  0
 33 32  1  0
 34 33  1  0
 35 34  1  0
 36 35  1  0
 37 36  1  0
 37 32  1  0
 38 35  1  0
 39 36  1  0
 40 37  1  0
 41 33  1  0
 42 41  1  0
 43 23  1  0
 44 43  1  0
  2 45  1  1
  4 46  1  6
  5 47  1  0
  5 48  1  0
  5 49  1  0
  6 50  1  1
  7 51  1  1
  8 52  1  1
  9 53  1  0
  9 54  1  0
 10 55  1  6
 11 56  1  0
 13 57  1  6
 14 58  1  1
 15 59  1  1
 16 60  1  0
 17 61  1  0
 18 62  1  0
 19 63  1  0
 19 64  1  0
 20 65  1  0
 21 66  1  0
 22 67  1  0
 23 68  1  6
 25 69  1  6
 26 70  1  1
 27 71  1  6
 28 72  1  1
 29 73  1  0
 30 74  1  0
 32 75  1  6
 33 76  1  1
 35 77  1  1
 36 78  1  6
 37 79  1  1
 38 80  1  0
 39 81  1  0
 40 82  1  0
 41 83  1  0
 41 84  1  0
 42 85  1  0
 43 86  1  0
 43 87  1  0
 44 88  1  0
M  CHG  1   9   1
M  END
>  <score>  (7) 
-6.736

$$$$
=
     RDKit          3D

 88 91  0  0  0  0  0  0  0  0999 V2000
   -0.9700   62.6170   77.2760 O   0  0  0  0  0  0  0  0  0  0  0  0
   -0.9300   61.7410   76.1380 C   0  0  1  0  0  0  0  0  0  0  0  0
   -0.4840   62.4890   75.0020 O   0  0  0  0  0  0  0  0  0  0  0  0
   -0.3120   61.7170   73.8060 C   0  0  2  0  0  0  0  0  0  0  0  0
   -1.6360   61.2080   73.2420 C   0  0  0  0  0  0  0  0  0  0  0  0
    0.7690   60.6330   74.0450 C   0  0  2  0  0  0  0  0  0  0  0  0
    0.4080   59.7550   75.2720 C   0  0  1  0  0  0  0  0  0  0  0  0
    0.0970   60.6400   76.4830 C   0  0  1  0  0  0  0  0  0  0  0  0
    2.0840   61.3720   74.3460 N   0  0  0  0  0  4  0  0  0  0  0  0
    3.3320   60.9750   73.6150 C   0  0  1  0  0  0  0  0  0  0  0  0
    3.2210   59.6240   72.9610 C   0  0  0  0  0  0  0  0  0  0  0  0
    3.5800   59.3850   71.6850 C   0  0  0  0  0  0  0  0  0  0  0  0
    4.1910   60.4630   70.8150 C   0  0  2  0  0  0  0  0  0  0  0  0
    4.7900   61.6290   71.6330 C   0  0  1  0  0  0  0  0  0  0  0  0
    3.7630   62.1320   72.6610 C   0  0  1  0  0  0  0  0  0  0  0  0
    3.1370   60.9790   70.0010 O   0  0  0  0  0  0  0  0  0  0  0  0
    5.9790   61.2290   72.3170 O   0  0  0  0  0  0  0  0  0  0  0  0
    2.6240   62.7410   72.0280 O   0  0  0  0  0  0  0  0  0  0  0  0
    3.4080   58.0470   71.0260 C   0  0  0  0  0  0  0  0  0  0  0  0
    3.8160   58.1970   69.6730 O   0  0  0  0  0  0  0  0  0  0  0  0
   -0.6770   58.8850   74.9690 O   0  0  0  0  0  0  0  0  0  0  0  0
    1.3450   61.2640   76.8940 O   0  0  0  0  0  0  0  0  0  0  0  0
   -3.1250   61.7660   78.0030 C   0  0  1  0  0  0  0  0  0  0  0  0
   -4.5010   62.0920   78.2770 O   0  0  0  0  0  0  0  0  0  0  0  0
   -5.1810   62.6710   77.1680 C   0  0  1  0  0  0  0  0  0  0  0  0
   -4.4630   63.9440   76.6800 C   0  0  1  0  0  0  0  0  0  0  0  0
   -2.9880   63.6630   76.3850 C   0  0  2  0  0  0  0  0  0  0  0  0
   -2.3160   63.0160   77.6050 C   0  0  2  0  0  0  0  0  0  0  0  0
   -5.0660   64.4830   75.4940 O   0  0  0  0  0  0  0  0  0  0  0  0
   -2.3370   64.8980   76.0400 O   0  0  0  0  0  0  0  0  0  0  0  0
   -5.2930   61.7590   76.0670 O   0  0  0  0  0  0  0  0  0  0  0  0
   -6.1850   60.6460   76.3300 C   0  0  2  0  0  0  0  0  0  0  0  0
   -5.9240   59.5190   75.3130 C   0  0  2  0  0  0  0  0  0  0  0  0
   -6.1900   59.8890   73.9410 O   0  0  0  0  0  0  0  0  0  0  0  0
   -7.0720   60.9880   73.7580 C   0  0  2  0  0  0  0  0  0  0  0  0
   -8.1950   61.0390   74.7970 C   0  0  1  0  0  0  0  0  0  0  0  0
   -7.6180   61.1970   76.2070 C   0  0  1  0  0  0  0  0  0  0  0  0
   -7.6770   60.8400   72.4780 O   0  0  0  0  0  0  0  0  0  0  0  0
   -9.1010   62.1220   74.5340 O   0  0  0  0  0  0  0  0  0  0  0  0
   -8.4720   60.5250   77.1410 O   0  0  0  0  0  0  0  0  0  0  0  0
   -6.6880   58.2260   75.6370 C   0  0  0  0  0  0  0  0  0  0  0  0
   -6.8340   57.4580   74.4410 O   0  0  0  0  0  0  0  0  0  0  0  0
   -2.5580   61.0890   79.2580 C   0  0  0  0  0  0  0  0  0  0  0  0
   -1.5600   61.9030   79.8710 O   0  0  0  0  0  0  0  0  0  0  0  0
   -1.9138   61.3059   75.9079 H   0  0  0  0  0  0  0  0  0  0  0  0
    0.0657   62.3620   72.9990 H   0  0  0  0  0  0  0  0  0  0  0  0
   -2.3117   60.9482   74.0702 H   0  0  0  0  0  0  0  0  0  0  0  0
   -2.0975   61.9928   72.6247 H   0  0  0  0  0  0  0  0  0  0  0  0
   -1.4529   60.3162   72.6247 H   0  0  0  0  0  0  0  0  0  0  0  0
    0.8490   59.9817   73.1622 H   0  0  0  0  0  0  0  0  0  0  0  0
    1.2741   59.1255   75.5241 H   0  0  0  0  0  0  0  0  0  0  0  0
   -0.3366   60.0226   77.2835 H   0  0  0  0  0  0  0  0  0  0  0  0
    1.9216   62.3689   74.1442 H   0  0  0  0  0  0  0  0  0  0  0  0
    2.2851   61.1239   75.3252 H   0  0  0  0  0  0  0  0  0  0  0  0
    4.1481   60.8342   74.3390 H   0  0  0  0  0  0  0  0  0  0  0  0
    2.8259   58.7878   73.5565 H   0  0  0  0  0  0  0  0  0  0  0  0
    5.0134   60.0224   70.2324 H   0  0  0  0  0  0  0  0  0  0  0  0
    5.0445   62.4350   70.9291 H   0  0  0  0  0  0  0  0  0  0  0  0
    4.2481   62.9140   73.2636 H   0  0  0  0  0  0  0  0  0  0  0  0
    2.4157   61.3321   70.5799 H   0  0  0  0  0  0  0  0  0  0  0  0
    5.8301   61.2791   73.2945 H   0  0  0  0  0  0  0  0  0  0  0  0
    2.0004   63.0744   72.7209 H   0  0  0  0  0  0  0  0  0  0  0  0
    4.0338   57.2947   71.5285 H   0  0  0  0  0  0  0  0  0  0  0  0
    2.3626   57.7100   71.0867 H   0  0  0  0  0  0  0  0  0  0  0  0
    4.7448   58.5385   69.6443 H   0  0  0  0  0  0  0  0  0  0  0  0
   -1.0836   58.5590   75.8107 H   0  0  0  0  0  0  0  0  0  0  0  0
    1.3922   61.2876   77.8826 H   0  0  0  0  0  0  0  0  0  0  0  0
   -3.0552   61.0828   77.1437 H   0  0  0  0  0  0  0  0  0  0  0  0
   -6.1905   62.9235   77.5245 H   0  0  0  0  0  0  0  0  0  0  0  0
   -4.5532   64.6789   77.4935 H   0  0  0  0  0  0  0  0  0  0  0  0
   -2.9049   62.9619   75.5415 H   0  0  0  0  0  0  0  0  0  0  0  0
   -2.2846   63.7386   78.4337 H   0  0  0  0  0  0  0  0  0  0  0  0
   -5.7796   65.1208   75.7472 H   0  0  0  0  0  0  0  0  0  0  0  0
   -2.0832   65.3795   76.8670 H   0  0  0  0  0  0  0  0  0  0  0  0
   -6.0264   60.2185   77.3311 H   0  0  0  0  0  0  0  0  0  0  0  0
   -4.8442   59.3337   75.4119 H   0  0  0  0  0  0  0  0  0  0  0  0
   -6.4833   61.9118   73.8583 H   0  0  0  0  0  0  0  0  0  0  0  0
   -8.7473   60.0901   74.7294 H   0  0  0  0  0  0  0  0  0  0  0  0
   -7.5690   62.2739   76.4258 H   0  0  0  0  0  0  0  0  0  0  0  0
   -8.6325   60.6063   72.5897 H   0  0  0  0  0  0  0  0  0  0  0  0
   -9.4188   62.5019   75.3912 H   0  0  0  0  0  0  0  0  0  0  0  0
   -8.1906   60.7465   78.0640 H   0  0  0  0  0  0  0  0  0  0  0  0
   -6.1271   57.6436   76.3828 H   0  0  0  0  0  0  0  0  0  0  0  0
   -7.6802   58.4731   76.0426 H   0  0  0  0  0  0  0  0  0  0  0  0
   -7.0136   56.5131   74.6755 H   0  0  0  0  0  0  0  0  0  0  0  0
   -3.3745   60.9195   79.9753 H   0  0  0  0  0  0  0  0  0  0  0  0
   -2.0990   60.1336   78.9639 H   0  0  0  0  0  0  0  0  0  0  0  0
   -1.6400   61.8378   80.8556 H   0  0  0  0  0  0  0  0  0  0  0  0
  2  1  1  0
  3  2  1  0
  4  3  1  0
  5  4  1  0
  6  4  1  0
  7  6  1  0
  8  2  1  0
  8  7  1  0
  9  6  1  0
 10  9  1  0
 11 10  1  0
 12 11  2  0
 13 12  1  0
 14 13  1  0
 15 14  1  0
 15 10  1  0
 16 13  1  0
 17 14  1  0
 18 15  1  0
 19 12  1  0
 20 19  1  0
 21  7  1  0
 22  8  1  0
 24 23  1  0
 25 24  1  0
 26 25  1  0
 27 26  1  0
 28 27  1  0
 28 23  1  0
 28  1  1  0
 29 26  1  0
 30 27  1  0
 31 25  1  0
 32 31  1  0
 33 32  1  0
 34 33  1  0
 35 34  1  0
 36 35  1  0
 37 36  1  0
 37 32  1  0
 38 35  1  0
 39 36  1  0
 40 37  1  0
 41 33  1  0
 42 41  1  0
 43 23  1  0
 44 43  1  0
  2 45  1  6
  4 46  1  6
  5 47  1  0
  5 48  1  0
  5 49  1  0
  6 50  1  6
  7 51  1  1
  8 52  1  1
  9 53  1  0
  9 54  1  0
 10 55  1  1
 11 56  1  0
 13 57  1  6
 14 58  1  6
 15 59  1  1
 16 60  1  0
 17 61  1  0
 18 62  1  0
 19 63  1  0
 19 64  1  0
 20 65  1  0
 21 66  1  0
 22 67  1  0
 23 68  1  6
 25 69  1  1
 26 70  1  1
 27 71  1  6
 28 72  1  1
 29 73  1  0
 30 74  1  0
 32 75  1  1
 33 76  1  6
 35 77  1  6
 36 78  1  1
 37 79  1  1
 38 80  1  0
 39 81  1  0
 40 82  1  0
 41 83  1  0
 41 84  1  0
 42 85  1  0
 43 86  1  0
 43 87  1  0
 44 88  1  0
M  CHG  1   9   1
M  END
>  <score>  (8) 
-6.643

$$$$
=
     RDKit          3D

 88 91  0  0  0  0  0  0  0  0999 V2000
   -0.3590   62.7330   75.8020 O   0  0  0  0  0  0  0  0  0  0  0  0
   -1.6210   63.0300   76.4190 C   0  0  1  0  0  0  0  0  0  0  0  0
   -2.6680   62.6600   75.5170 O   0  0  0  0  0  0  0  0  0  0  0  0
   -3.9940   62.8220   76.0400 C   0  0  2  0  0  0  0  0  0  0  0  0
   -4.3700   64.2870   76.2410 C   0  0  0  0  0  0  0  0  0  0  0  0
   -4.1710   61.9130   77.2820 C   0  0  2  0  0  0  0  0  0  0  0  0
   -3.0750   62.2070   78.3410 C   0  0  1  0  0  0  0  0  0  0  0  0
   -1.6870   62.1590   77.6940 C   0  0  1  0  0  0  0  0  0  0  0  0
   -4.0060   60.4620   76.8010 N   0  0  0  0  0  4  0  0  0  0  0  0
   -5.2130   59.7010   76.3370 C   0  0  1  0  0  0  0  0  0  0  0  0
   -6.5040   60.4060   76.6550 C   0  0  0  0  0  0  0  0  0  0  0  0
   -7.4940   60.5820   75.7580 C   0  0  0  0  0  0  0  0  0  0  0  0
   -7.4050   60.0220   74.3550 C   0  0  2  0  0  0  0  0  0  0  0  0
   -6.3750   58.8760   74.2270 C   0  0  1  0  0  0  0  0  0  0  0  0
   -5.0320   59.3080   74.8380 C   0  0  1  0  0  0  0  0  0  0  0  0
   -6.9900   61.0960   73.5090 O   0  0  0  0  0  0  0  0  0  0  0  0
   -6.8290   57.6920   74.8860 O   0  0  0  0  0  0  0  0  0  0  0  0
   -4.4180   60.3710   74.0890 O   0  0  0  0  0  0  0  0  0  0  0  0
   -8.7520   61.3390   76.0700 C   0  0  0  0  0  0  0  0  0  0  0  0
   -9.6860   61.0300   75.0450 O   0  0  0  0  0  0  0  0  0  0  0  0
   -3.3120   63.4580   78.9780 O   0  0  0  0  0  0  0  0  0  0  0  0
   -1.4250   60.7740   77.3380 O   0  0  0  0  0  0  0  0  0  0  0  0
    0.2700   61.3210   73.9280 C   0  0  1  0  0  0  0  0  0  0  0  0
    0.2480   61.1670   72.4970 O   0  0  0  0  0  0  0  0  0  0  0  0
    0.8580   62.2470   71.7980 C   0  0  1  0  0  0  0  0  0  0  0  0
    0.1890   63.5880   72.1570 C   0  0  1  0  0  0  0  0  0  0  0  0
    0.1690   63.8030   73.6720 C   0  0  2  0  0  0  0  0  0  0  0  0
   -0.4750   62.5960   74.3710 C   0  0  2  0  0  0  0  0  0  0  0  0
    0.8580   64.7050   71.5520 O   0  0  0  0  0  0  0  0  0  0  0  0
   -0.5590   65.0090   73.9630 O   0  0  0  0  0  0  0  0  0  0  0  0
    2.2610   62.3480   72.0770 O   0  0  0  0  0  0  0  0  0  0  0  0
    3.0990   61.8580   70.9990 C   0  0  2  0  0  0  0  0  0  0  0  0
    2.7130   60.4060   70.6610 C   0  0  2  0  0  0  0  0  0  0  0  0
    2.9230   59.4720   71.7450 O   0  0  0  0  0  0  0  0  0  0  0  0
    3.8580   59.8750   72.7350 C   0  0  2  0  0  0  0  0  0  0  0  0
    5.0390   60.6650   72.1640 C   0  0  1  0  0  0  0  0  0  0  0  0
    4.5520   61.9550   71.4960 C   0  0  1  0  0  0  0  0  0  0  0  0
    4.3800   58.6950   73.3350 O   0  0  0  0  0  0  0  0  0  0  0  0
    5.9910   60.9930   73.1870 O   0  0  0  0  0  0  0  0  0  0  0  0
    5.4170   62.2680   70.3970 O   0  0  0  0  0  0  0  0  0  0  0  0
    3.4150   59.8740   69.4020 C   0  0  0  0  0  0  0  0  0  0  0  0
    3.7440   58.4960   69.5980 O   0  0  0  0  0  0  0  0  0  0  0  0
   -0.3510   60.0540   74.5330 C   0  0  0  0  0  0  0  0  0  0  0  0
   -1.7720   60.1540   74.5820 O   0  0  0  0  0  0  0  0  0  0  0  0
   -1.7293   64.0971   76.6630 H   0  0  0  0  0  0  0  0  0  0  0  0
   -4.7302   62.4817   75.2969 H   0  0  0  0  0  0  0  0  0  0  0  0
   -4.4264   64.5067   77.3174 H   0  0  0  0  0  0  0  0  0  0  0  0
   -3.6074   64.9285   75.7753 H   0  0  0  0  0  0  0  0  0  0  0  0
   -5.3473   64.4820   75.7753 H   0  0  0  0  0  0  0  0  0  0  0  0
   -5.1550   62.0907   77.7405 H   0  0  0  0  0  0  0  0  0  0  0  0
   -3.1144   61.4292   79.1178 H   0  0  0  0  0  0  0  0  0  0  0  0
   -0.9408   62.5499   78.4014 H   0  0  0  0  0  0  0  0  0  0  0  0
   -3.3412   60.4798   76.0144 H   0  0  0  0  0  0  0  0  0  0  0  0
   -3.7092   59.9563   77.6478 H   0  0  0  0  0  0  0  0  0  0  0  0
   -5.2941   58.7638   76.9071 H   0  0  0  0  0  0  0  0  0  0  0  0
   -6.6469   60.7981   77.6728 H   0  0  0  0  0  0  0  0  0  0  0  0
   -8.3855   59.6064   74.0795 H   0  0  0  0  0  0  0  0  0  0  0  0
   -6.2496   58.6558   73.1566 H   0  0  0  0  0  0  0  0  0  0  0  0
   -4.3497   58.4468   74.7864 H   0  0  0  0  0  0  0  0  0  0  0  0
   -6.6950   61.8596   74.0658 H   0  0  0  0  0  0  0  0  0  0  0  0
   -6.7797   57.8205   75.8664 H   0  0  0  0  0  0  0  0  0  0  0  0
   -4.0339   61.0359   74.7139 H   0  0  0  0  0  0  0  0  0  0  0  0
   -9.1476   61.0281   77.0482 H   0  0  0  0  0  0  0  0  0  0  0  0
   -8.5593   62.4211   76.1132 H   0  0  0  0  0  0  0  0  0  0  0  0
  -10.5423   60.7467   75.4532 H   0  0  0  0  0  0  0  0  0  0  0  0
   -3.2892   63.3376   79.9604 H   0  0  0  0  0  0  0  0  0  0  0  0
   -1.3230   60.2350   78.1622 H   0  0  0  0  0  0  0  0  0  0  0  0
    1.3032   61.4414   74.2858 H   0  0  0  0  0  0  0  0  0  0  0  0
    0.7230   62.0347   70.7272 H   0  0  0  0  0  0  0  0  0  0  0  0
   -0.8385   63.5321   71.7682 H   0  0  0  0  0  0  0  0  0  0  0  0
    1.1982   63.9020   74.0474 H   0  0  0  0  0  0  0  0  0  0  0  0
   -1.5396   62.5379   74.1003 H   0  0  0  0  0  0  0  0  0  0  0  0
    1.2139   65.2992   72.2594 H   0  0  0  0  0  0  0  0  0  0  0  0
   -0.6284   65.1240   74.9438 H   0  0  0  0  0  0  0  0  0  0  0  0
    2.9729   62.4472   70.0787 H   0  0  0  0  0  0  0  0  0  0  0  0
    1.6313   60.4684   70.4712 H   0  0  0  0  0  0  0  0  0  0  0  0
    3.3322   60.5295   73.4457 H   0  0  0  0  0  0  0  0  0  0  0  0
    5.5298   60.0258   71.4153 H   0  0  0  0  0  0  0  0  0  0  0  0
    4.5785   62.7514   72.2544 H   0  0  0  0  0  0  0  0  0  0  0  0
    4.3418   58.7813   74.3205 H   0  0  0  0  0  0  0  0  0  0  0  0
    5.5809   60.8517   74.0769 H   0  0  0  0  0  0  0  0  0  0  0  0
    6.2892   62.5836   70.7430 H   0  0  0  0  0  0  0  0  0  0  0  0
    2.7439   59.9731   68.5361 H   0  0  0  0  0  0  0  0  0  0  0  0
    4.3324   60.4518   69.2165 H   0  0  0  0  0  0  0  0  0  0  0  0
    3.7902   58.3025   70.5678 H   0  0  0  0  0  0  0  0  0  0  0  0
   -0.0726   59.1871   73.9157 H   0  0  0  0  0  0  0  0  0  0  0  0
    0.0271   59.9344   75.5590 H   0  0  0  0  0  0  0  0  0  0  0  0
   -2.0690   60.1749   75.5262 H   0  0  0  0  0  0  0  0  0  0  0  0
  2  1  1  0
  3  2  1  0
  4  3  1  0
  5  4  1  0
  6  4  1  0
  7  6  1  0
  8  2  1  0
  8  7  1  0
  9  6  1  0
 10  9  1  0
 11 10  1  0
 12 11  2  0
 13 12  1  0
 14 13  1  0
 15 14  1  0
 15 10  1  0
 16 13  1  0
 17 14  1  0
 18 15  1  0
 19 12  1  0
 20 19  1  0
 21  7  1  0
 22  8  1  0
 24 23  1  0
 25 24  1  0
 26 25  1  0
 27 26  1  0
 28 27  1  0
 28 23  1  0
 28  1  1  0
 29 26  1  0
 30 27  1  0
 31 25  1  0
 32 31  1  0
 33 32  1  0
 34 33  1  0
 35 34  1  0
 36 35  1  0
 37 36  1  0
 37 32  1  0
 38 35  1  0
 39 36  1  0
 40 37  1  0
 41 33  1  0
 42 41  1  0
 43 23  1  0
 44 43  1  0
  2 45  1  1
  4 46  1  6
  5 47  1  0
  5 48  1  0
  5 49  1  0
  6 50  1  1
  7 51  1  1
  8 52  1  1
  9 53  1  0
  9 54  1  0
 10 55  1  1
 11 56  1  0
 13 57  1  6
 14 58  1  6
 15 59  1  1
 16 60  1  0
 17 61  1  0
 18 62  1  0
 19 63  1  0
 19 64  1  0
 20 65  1  0
 21 66  1  0
 22 67  1  0
 23 68  1  1
 25 69  1  6
 26 70  1  6
 27 71  1  1
 28 72  1  1
 29 73  1  0
 30 74  1  0
 32 75  1  6
 33 76  1  6
 35 77  1  1
 36 78  1  6
 37 79  1  1
 38 80  1  0
 39 81  1  0
 40 82  1  0
 41 83  1  0
 41 84  1  0
 42 85  1  0
 43 86  1  0
 43 87  1  0
 44 88  1  0
M  CHG  1   9   1
M  END
>  <score>  (9) 
-6.641

$$$$
