=
     RDKit          3D

 67 71  0  0  0  0  0  0  0  0999 V2000
    1.2390   54.0410   75.7760 C   0  0  2  0  0  0  0  0  0  0  0  0
    1.4860   54.0690   77.3060 C   0  0  0  0  0  0  0  0  0  0  0  0
    1.0560   55.4660   77.7940 C   0  0  0  0  0  0  0  0  0  0  0  0
    0.4360   56.1410   76.5680 C   0  0  2  0  0  0  0  0  0  0  0  0
    1.2370   55.5540   75.3930 C   0  0  1  0  0  0  0  0  0  0  0  0
    2.7040   56.0610   75.3180 C   0  0  0  0  0  0  0  0  0  0  0  0
    0.4940   55.9330   74.1020 C   0  0  0  0  0  0  0  0  0  0  0  0
    0.2280   57.4590   73.9380 C   0  0  1  0  0  0  0  0  0  0  0  0
   -0.2280   58.1890   75.2270 C   0  0  0  0  0  0  0  0  0  0  0  0
   -1.1050   59.2330   75.1970 C   0  0  0  0  0  0  0  0  0  0  0  0
   -1.8120   59.6850   73.9250 C   0  0  0  0  0  0  0  0  0  0  0  0
   -2.1750   61.1600   73.8880 C   0  0  0  0  0  0  0  0  0  0  0  0
   -2.8720   61.5510   75.1590 C   0  0  0  0  0  0  0  0  0  0  0  0
   -3.7950   62.3600   75.1930 O   0  0  0  0  0  0  0  0  0  0  0  0
   -2.3200   61.0110   76.4180 C   0  0  0  0  0  0  0  0  0  0  0  0
   -1.4500   59.9870   76.4100 C   0  0  0  0  0  0  0  0  0  0  0  0
   -0.7590   59.6170   77.6960 C   0  0  0  0  0  0  0  0  0  0  0  0
   -0.4750   58.1310   77.7680 C   0  0  0  0  0  0  0  0  0  0  0  0
    0.3560   57.6740   76.5570 C   0  0  1  0  0  0  0  0  0  0  0  0
    1.3380   58.1780   73.1620 C   0  0  0  0  0  0  0  0  0  0  0  0
    2.0460   57.4830   72.1750 C   0  0  0  0  0  0  0  0  0  0  0  0
    3.0580   58.1050   71.4260 C   0  0  0  0  0  0  0  0  0  0  0  0
    3.4210   59.4470   71.6190 C   0  0  0  0  0  0  0  0  0  0  0  0
    2.6800   60.1370   72.5920 C   0  0  0  0  0  0  0  0  0  0  0  0
    1.6660   59.5240   73.3470 C   0  0  0  0  0  0  0  0  0  0  0  0
    4.4210   60.0670   70.8590 N   0  0  0  0  0  0  0  0  0  0  0  0
    5.4660   60.8170   71.5520 C   0  0  0  0  0  0  0  0  0  0  0  0
    4.0920   60.5400   69.5150 C   0  0  0  0  0  0  0  0  0  0  0  0
   -2.3080   52.0510   74.9820 C   0  0  0  0  0  0  0  0  0  0  0  0
   -1.0580   52.7560   75.2600 C   0  0  0  0  0  0  0  0  0  0  0  0
   -0.0270   53.3340   75.4830 C   0  0  0  0  0  0  0  0  0  0  0  0
    2.2890   53.3400   75.1260 O   0  0  0  0  0  0  0  0  0  0  0  0
    0.8858   53.2920   77.8020 H   0  0  0  0  0  0  0  0  0  0  0  0
    2.5425   53.8735   77.5417 H   0  0  0  0  0  0  0  0  0  0  0  0
    0.3167   55.3818   78.6041 H   0  0  0  0  0  0  0  0  0  0  0  0
    1.9023   56.0409   78.1981 H   0  0  0  0  0  0  0  0  0  0  0  0
   -0.6417   55.9238   76.5310 H   0  0  0  0  0  0  0  0  0  0  0  0
    3.0975   56.1970   76.3362 H   0  0  0  0  0  0  0  0  0  0  0  0
    3.3199   55.3236   74.7824 H   0  0  0  0  0  0  0  0  0  0  0  0
    2.7331   57.0213   74.7824 H   0  0  0  0  0  0  0  0  0  0  0  0
    1.0965   55.5947   73.2461 H   0  0  0  0  0  0  0  0  0  0  0  0
   -0.4910   55.4458   74.1517 H   0  0  0  0  0  0  0  0  0  0  0  0
   -0.6644   57.5181   73.2976 H   0  0  0  0  0  0  0  0  0  0  0  0
   -1.1502   59.4739   73.0721 H   0  0  0  0  0  0  0  0  0  0  0  0
   -2.7615   59.1311   73.8848 H   0  0  0  0  0  0  0  0  0  0  0  0
   -1.2583   61.7578   73.7769 H   0  0  0  0  0  0  0  0  0  0  0  0
   -2.8471   61.3445   73.0370 H   0  0  0  0  0  0  0  0  0  0  0  0
   -2.6259   61.4540   77.3772 H   0  0  0  0  0  0  0  0  0  0  0  0
    0.1920   60.1659   77.7611 H   0  0  0  0  0  0  0  0  0  0  0  0
   -1.4229   59.8816   78.5322 H   0  0  0  0  0  0  0  0  0  0  0  0
    0.0835   57.9149   78.6907 H   0  0  0  0  0  0  0  0  0  0  0  0
   -1.4320   57.5887   77.7636 H   0  0  0  0  0  0  0  0  0  0  0  0
    1.3662   58.1020   76.6368 H   0  0  0  0  0  0  0  0  0  0  0  0
    1.8047   56.4273   71.9818 H   0  0  0  0  0  0  0  0  0  0  0  0
    3.5859   57.5186   70.6595 H   0  0  0  0  0  0  0  0  0  0  0  0
    2.9022   61.1995   72.7701 H   0  0  0  0  0  0  0  0  0  0  0  0
    1.1201   60.1144   74.0977 H   0  0  0  0  0  0  0  0  0  0  0  0
    5.3286   60.7184   72.6389 H   0  0  0  0  0  0  0  0  0  0  0  0
    6.4517   60.4190   71.2694 H   0  0  0  0  0  0  0  0  0  0  0  0
    5.4044   61.8783   71.2694 H   0  0  0  0  0  0  0  0  0  0  0  0
    3.4652   61.4411   69.5866 H   0  0  0  0  0  0  0  0  0  0  0  0
    5.0190   60.7802   68.9737 H   0  0  0  0  0  0  0  0  0  0  0  0
    3.5443   59.7545   68.9737 H   0  0  0  0  0  0  0  0  0  0  0  0
   -2.7933   51.7773   75.9304 H   0  0  0  0  0  0  0  0  0  0  0  0
   -2.9769   52.7049   74.4032 H   0  0  0  0  0  0  0  0  0  0  0  0
   -2.0944   51.1403   74.4032 H   0  0  0  0  0  0  0  0  0  0  0  0
    2.8884   52.9399   75.8048 H   0  0  0  0  0  0  0  0  0  0  0  0
  2  1  1  0
  3  2  1  0
  4  3  1  0
  5  1  1  0
  5  4  1  0
  5  6  1  6
  7  5  1  0
  8  7  1  0
  9  8  1  0
 10  9  2  0
 11 10  1  0
 12 11  1  0
 13 12  1  0
 14 13  2  0
 15 13  1  0
 16 10  1  0
 16 15  2  0
 17 16  1  0
 18 17  1  0
 19  9  1  0
 19 18  1  0
 19  4  1  0
 20  8  1  0
 21 20  2  0
 22 21  1  0
 23 22  2  0
 24 23  1  0
 25 20  1  0
 25 24  2  0
 26 23  1  0
 27 26  1  0
 28 26  1  0
 30 29  1  0
 31 30  3  0
  1 31  1  1
 32  1  1  0
  2 33  1  0
  2 34  1  0
  3 35  1  0
  3 36  1  0
  4 37  1  6
  6 38  1  0
  6 39  1  0
  6 40  1  0
  7 41  1  0
  7 42  1  0
  8 43  1  6
 11 44  1  0
 11 45  1  0
 12 46  1  0
 12 47  1  0
 15 48  1  0
 17 49  1  0
 17 50  1  0
 18 51  1  0
 18 52  1  0
 19 53  1  1
 21 54  1  0
 22 55  1  0
 24 56  1  0
 25 57  1  0
 27 58  1  0
 27 59  1  0
 27 60  1  0
 28 61  1  0
 28 62  1  0
 28 63  1  0
 29 64  1  0
 29 65  1  0
 29 66  1  0
 32 67  1  0
M  END
>  <score>  (1) 
-7.793

$$$$
=
     RDKit          3D

 67 71  0  0  0  0  0  0  0  0999 V2000
    1.5800   56.0800   76.3700 C   0  0  2  0  0  0  0  0  0  0  0  0
    1.9010   54.9610   75.3460 C   0  0  0  0  0  0  0  0  0  0  0  0
    2.1000   55.6550   73.9850 C   0  0  0  0  0  0  0  0  0  0  0  0
    2.0390   57.1540   74.2920 C   0  0  2  0  0  0  0  0  0  0  0  0
    1.0520   57.2390   75.4680 C   0  0  1  0  0  0  0  0  0  0  0  0
   -0.4210   56.9450   75.0730 C   0  0  0  0  0  0  0  0  0  0  0  0
    1.1560   58.6590   76.0460 C   0  0  0  0  0  0  0  0  0  0  0  0
    0.9410   59.7960   75.0040 C   0  0  1  0  0  0  0  0  0  0  0  0
    1.6230   59.5670   73.6310 C   0  0  0  0  0  0  0  0  0  0  0  0
    2.1280   60.5950   72.8920 C   0  0  0  0  0  0  0  0  0  0  0  0
    2.1880   62.0300   73.4010 C   0  0  0  0  0  0  0  0  0  0  0  0
    2.1180   63.0950   72.3190 C   0  0  0  0  0  0  0  0  0  0  0  0
    3.0980   62.7820   71.2250 C   0  0  0  0  0  0  0  0  0  0  0  0
    3.7280   63.6480   70.6250 O   0  0  0  0  0  0  0  0  0  0  0  0
    3.1950   61.3720   70.7970 C   0  0  0  0  0  0  0  0  0  0  0  0
    2.6780   60.3830   71.5460 C   0  0  0  0  0  0  0  0  0  0  0  0
    2.6160   58.9950   70.9660 C   0  0  0  0  0  0  0  0  0  0  0  0
    2.7720   57.9360   72.0370 C   0  0  0  0  0  0  0  0  0  0  0  0
    1.7110   58.1100   73.1360 C   0  0  1  0  0  0  0  0  0  0  0  0
   -0.5200   60.2560   74.9160 C   0  0  0  0  0  0  0  0  0  0  0  0
   -1.2190   60.5490   76.0920 C   0  0  0  0  0  0  0  0  0  0  0  0
   -2.5520   60.9900   76.0600 C   0  0  0  0  0  0  0  0  0  0  0  0
   -3.2600   61.1620   74.8600 C   0  0  0  0  0  0  0  0  0  0  0  0
   -2.5330   60.8920   73.6890 C   0  0  0  0  0  0  0  0  0  0  0  0
   -1.2000   60.4490   73.7100 C   0  0  0  0  0  0  0  0  0  0  0  0
   -4.5840   61.6180   74.8340 N   0  0  0  0  0  0  0  0  0  0  0  0
   -4.9790   62.6780   75.7580 C   0  0  0  0  0  0  0  0  0  0  0  0
   -5.6430   60.6830   74.4570 C   0  0  0  0  0  0  0  0  0  0  0  0
    4.9710   57.0410   78.5490 C   0  0  0  0  0  0  0  0  0  0  0  0
    3.7740   56.6990   77.7820 C   0  0  0  0  0  0  0  0  0  0  0  0
    2.7930   56.4140   77.1480 C   0  0  0  0  0  0  0  0  0  0  0  0
    0.5860   55.6350   77.2820 O   0  0  0  0  0  0  0  0  0  0  0  0
    2.8186   54.4299   75.6392 H   0  0  0  0  0  0  0  0  0  0  0  0
    1.0888   54.2207   75.2992 H   0  0  0  0  0  0  0  0  0  0  0  0
    3.0762   55.3880   73.5539 H   0  0  0  0  0  0  0  0  0  0  0  0
    1.3384   55.3521   73.2514 H   0  0  0  0  0  0  0  0  0  0  0  0
    3.0475   57.5262   74.5251 H   0  0  0  0  0  0  0  0  0  0  0  0
   -1.0274   56.8240   75.9827 H   0  0  0  0  0  0  0  0  0  0  0  0
   -0.8152   57.7822   74.4783 H   0  0  0  0  0  0  0  0  0  0  0  0
   -0.4636   56.0206   74.4783 H   0  0  0  0  0  0  0  0  0  0  0  0
    0.3957   58.7662   76.8337 H   0  0  0  0  0  0  0  0  0  0  0  0
    2.1834   58.7695   76.4231 H   0  0  0  0  0  0  0  0  0  0  0  0
    1.4964   60.6540   75.4106 H   0  0  0  0  0  0  0  0  0  0  0  0
    1.3431   62.1847   74.0882 H   0  0  0  0  0  0  0  0  0  0  0  0
    3.1690   62.1454   73.8852 H   0  0  0  0  0  0  0  0  0  0  0  0
    1.1012   63.1223   71.9002 H   0  0  0  0  0  0  0  0  0  0  0  0
    2.3674   64.0723   72.7580 H   0  0  0  0  0  0  0  0  0  0  0  0
    3.6984   61.1272   69.8501 H   0  0  0  0  0  0  0  0  0  0  0  0
    1.6444   58.8591   70.4684 H   0  0  0  0  0  0  0  0  0  0  0  0
    3.4432   58.8842   70.2495 H   0  0  0  0  0  0  0  0  0  0  0  0
    2.6583   56.9418   71.5803 H   0  0  0  0  0  0  0  0  0  0  0  0
    3.7690   58.0375   72.4904 H   0  0  0  0  0  0  0  0  0  0  0  0
    0.7237   57.8656   72.7171 H   0  0  0  0  0  0  0  0  0  0  0  0
   -0.7139   60.4315   77.0621 H   0  0  0  0  0  0  0  0  0  0  0  0
   -3.0603   61.2088   77.0107 H   0  0  0  0  0  0  0  0  0  0  0  0
   -3.0272   61.0331   72.7164 H   0  0  0  0  0  0  0  0  0  0  0  0
   -0.6819   60.2504   72.7602 H   0  0  0  0  0  0  0  0  0  0  0  0
   -4.8491   62.3293   76.7932 H   0  0  0  0  0  0  0  0  0  0  0  0
   -4.3511   63.5651   75.5884 H   0  0  0  0  0  0  0  0  0  0  0  0
   -6.0343   62.9379   75.5884 H   0  0  0  0  0  0  0  0  0  0  0  0
   -6.1090   60.2715   75.3645 H   0  0  0  0  0  0  0  0  0  0  0  0
   -6.4028   61.2103   73.8614 H   0  0  0  0  0  0  0  0  0  0  0  0
   -5.2139   59.8637   73.8614 H   0  0  0  0  0  0  0  0  0  0  0  0
    4.7481   56.9773   79.6243 H   0  0  0  0  0  0  0  0  0  0  0  0
    5.7794   56.3379   78.2999 H   0  0  0  0  0  0  0  0  0  0  0  0
    5.2860   58.0651   78.2999 H   0  0  0  0  0  0  0  0  0  0  0  0
    0.9020   55.7765   78.2095 H   0  0  0  0  0  0  0  0  0  0  0  0
  2  1  1  0
  3  2  1  0
  4  3  1  0
  5  1  1  0
  5  4  1  0
  5  6  1  6
  7  5  1  0
  8  7  1  0
  9  8  1  0
 10  9  2  0
 11 10  1  0
 12 11  1  0
 13 12  1  0
 14 13  2  0
 15 13  1  0
 16 10  1  0
 16 15  2  0
 17 16  1  0
 18 17  1  0
 19  9  1  0
 19 18  1  0
 19  4  1  0
 20  8  1  0
 21 20  2  0
 22 21  1  0
 23 22  2  0
 24 23  1  0
 25 20  1  0
 25 24  2  0
 26 23  1  0
 27 26  1  0
 28 26  1  0
 30 29  1  0
 31 30  3  0
  1 31  1  1
 32  1  1  0
  2 33  1  0
  2 34  1  0
  3 35  1  0
  3 36  1  0
  4 37  1  1
  6 38  1  0
  6 39  1  0
  6 40  1  0
  7 41  1  0
  7 42  1  0
  8 43  1  1
 11 44  1  0
 11 45  1  0
 12 46  1  0
 12 47  1  0
 15 48  1  0
 17 49  1  0
 17 50  1  0
 18 51  1  0
 18 52  1  0
 19 53  1  6
 21 54  1  0
 22 55  1  0
 24 56  1  0
 25 57  1  0
 27 58  1  0
 27 59  1  0
 27 60  1  0
 28 61  1  0
 28 62  1  0
 28 63  1  0
 29 64  1  0
 29 65  1  0
 29 66  1  0
 32 67  1  0
M  END
>  <score>  (2) 
-7.754

$$$$
=
     RDKit          3D

 67 71  0  0  0  0  0  0  0  0999 V2000
    3.5150   60.8220   71.9400 C   0  0  2  0  0  0  0  0  0  0  0  0
    3.8010   59.7470   70.8610 C   0  0  0  0  0  0  0  0  0  0  0  0
    3.0460   58.4760   71.2980 C   0  0  0  0  0  0  0  0  0  0  0  0
    2.2320   58.9000   72.5230 C   0  0  2  0  0  0  0  0  0  0  0  0
    3.1140   59.9720   73.1860 C   0  0  1  0  0  0  0  0  0  0  0  0
    4.3990   59.4050   73.8490 C   0  0  0  0  0  0  0  0  0  0  0  0
    2.2520   60.6750   74.2470 C   0  0  0  0  0  0  0  0  0  0  0  0
    1.6000   59.7150   75.2850 C   0  0  1  0  0  0  0  0  0  0  0  0
    1.0190   58.4040   74.6950 C   0  0  0  0  0  0  0  0  0  0  0  0
   -0.0950   57.8100   75.2080 C   0  0  0  0  0  0  0  0  0  0  0  0
   -0.9390   58.4410   76.3080 C   0  0  0  0  0  0  0  0  0  0  0  0
   -1.6670   57.4500   77.2010 C   0  0  0  0  0  0  0  0  0  0  0  0
   -2.3950   56.4400   76.3620 C   0  0  0  0  0  0  0  0  0  0  0  0
   -3.4910   55.9820   76.6690 O   0  0  0  0  0  0  0  0  0  0  0  0
   -1.6790   55.9070   75.1850 C   0  0  0  0  0  0  0  0  0  0  0  0
   -0.5780   56.5140   74.7110 C   0  0  0  0  0  0  0  0  0  0  0  0
    0.2310   55.8160   73.6490 C   0  0  0  0  0  0  0  0  0  0  0  0
    0.8870   56.8060   72.7080 C   0  0  0  0  0  0  0  0  0  0  0  0
    1.7620   57.8010   73.4870 C   0  0  1  0  0  0  0  0  0  0  0  0
    2.4620   59.5170   76.5390 C   0  0  0  0  0  0  0  0  0  0  0  0
    2.6830   60.6000   77.3970 C   0  0  0  0  0  0  0  0  0  0  0  0
    3.4500   60.4620   78.5660 C   0  0  0  0  0  0  0  0  0  0  0  0
    4.0380   59.2440   78.9410 C   0  0  0  0  0  0  0  0  0  0  0  0
    3.7800   58.1620   78.0840 C   0  0  0  0  0  0  0  0  0  0  0  0
    3.0150   58.2890   76.9130 C   0  0  0  0  0  0  0  0  0  0  0  0
    4.7890   59.1090   80.1160 N   0  0  0  0  0  0  0  0  0  0  0  0
    5.8700   60.0590   80.3710 C   0  0  0  0  0  0  0  0  0  0  0  0
    4.9760   57.7740   80.6820 C   0  0  0  0  0  0  0  0  0  0  0  0
    0.5620   63.4190   70.6320 C   0  0  0  0  0  0  0  0  0  0  0  0
    1.6060   62.5030   71.0900 C   0  0  0  0  0  0  0  0  0  0  0  0
    2.4610   61.7460   71.4640 C   0  0  0  0  0  0  0  0  0  0  0  0
    4.6850   61.5880   72.1870 O   0  0  0  0  0  0  0  0  0  0  0  0
    3.4370   60.0869   69.8802 H   0  0  0  0  0  0  0  0  0  0  0  0
    4.8801   59.5558   70.7664 H   0  0  0  0  0  0  0  0  0  0  0  0
    2.3814   58.1257   70.4946 H   0  0  0  0  0  0  0  0  0  0  0  0
    3.7312   57.6458   71.5245 H   0  0  0  0  0  0  0  0  0  0  0  0
    1.2449   59.2655   72.2037 H   0  0  0  0  0  0  0  0  0  0  0  0
    4.2973   59.4499   74.9434 H   0  0  0  0  0  0  0  0  0  0  0  0
    4.5423   58.3601   73.5366 H   0  0  0  0  0  0  0  0  0  0  0  0
    5.2675   60.0035   73.5366 H   0  0  0  0  0  0  0  0  0  0  0  0
    2.8891   61.3881   74.7906 H   0  0  0  0  0  0  0  0  0  0  0  0
    1.4262   61.1624   73.7080 H   0  0  0  0  0  0  0  0  0  0  0  0
    0.6998   60.2468   75.6267 H   0  0  0  0  0  0  0  0  0  0  0  0
   -0.2764   59.0494   76.9411 H   0  0  0  0  0  0  0  0  0  0  0  0
   -1.7172   59.0306   75.8013 H   0  0  0  0  0  0  0  0  0  0  0  0
   -0.9375   56.9331   77.8418 H   0  0  0  0  0  0  0  0  0  0  0  0
   -2.3935   57.9921   77.8242 H   0  0  0  0  0  0  0  0  0  0  0  0
   -2.0529   54.9992   74.6890 H   0  0  0  0  0  0  0  0  0  0  0  0
    1.0125   55.2127   74.1342 H   0  0  0  0  0  0  0  0  0  0  0  0
   -0.4475   55.1801   73.0615 H   0  0  0  0  0  0  0  0  0  0  0  0
    1.5151   56.2590   71.9894 H   0  0  0  0  0  0  0  0  0  0  0  0
    0.1006   57.3656   72.1803 H   0  0  0  0  0  0  0  0  0  0  0  0
    2.6312   57.2650   73.8960 H   0  0  0  0  0  0  0  0  0  0  0  0
    2.2472   61.5796   77.1512 H   0  0  0  0  0  0  0  0  0  0  0  0
    3.5950   61.3410   79.2112 H   0  0  0  0  0  0  0  0  0  0  0  0
    4.1936   57.1754   78.3400 H   0  0  0  0  0  0  0  0  0  0  0  0
    2.8480   57.4060   76.2787 H   0  0  0  0  0  0  0  0  0  0  0  0
    6.0053   60.1779   81.4562 H   0  0  0  0  0  0  0  0  0  0  0  0
    6.8020   59.6824   79.9244 H   0  0  0  0  0  0  0  0  0  0  0  0
    5.6163   61.0317   79.9244 H   0  0  0  0  0  0  0  0  0  0  0  0
    4.9672   57.8368   81.7802 H   0  0  0  0  0  0  0  0  0  0  0  0
    4.1613   57.1158   80.3458 H   0  0  0  0  0  0  0  0  0  0  0  0
    5.9402   57.3650   80.3458 H   0  0  0  0  0  0  0  0  0  0  0  0
    0.0561   63.8629   71.5021 H   0  0  0  0  0  0  0  0  0  0  0  0
    1.0147   64.2167   70.0247 H   0  0  0  0  0  0  0  0  0  0  0  0
   -0.1700   62.8664   70.0247 H   0  0  0  0  0  0  0  0  0  0  0  0
    4.8211   61.6771   73.1636 H   0  0  0  0  0  0  0  0  0  0  0  0
  2  1  1  0
  3  2  1  0
  4  3  1  0
  5  1  1  0
  5  4  1  0
  5  6  1  1
  7  5  1  0
  8  7  1  0
  9  8  1  0
 10  9  2  0
 11 10  1  0
 12 11  1  0
 13 12  1  0
 14 13  2  0
 15 13  1  0
 16 10  1  0
 16 15  2  0
 17 16  1  0
 18 17  1  0
 19  9  1  0
 19 18  1  0
 19  4  1  0
 20  8  1  0
 21 20  2  0
 22 21  1  0
 23 22  2  0
 24 23  1  0
 25 20  1  0
 25 24  2  0
 26 23  1  0
 27 26  1  0
 28 26  1  0
 30 29  1  0
 31 30  3  0
  1 31  1  6
 32  1  1  0
  2 33  1  0
  2 34  1  0
  3 35  1  0
  3 36  1  0
  4 37  1  6
  6 38  1  0
  6 39  1  0
  6 40  1  0
  7 41  1  0
  7 42  1  0
  8 43  1  1
 11 44  1  0
 11 45  1  0
 12 46  1  0
 12 47  1  0
 15 48  1  0
 17 49  1  0
 17 50  1  0
 18 51  1  0
 18 52  1  0
 19 53  1  1
 21 54  1  0
 22 55  1  0
 24 56  1  0
 25 57  1  0
 27 58  1  0
 27 59  1  0
 27 60  1  0
 28 61  1  0
 28 62  1  0
 28 63  1  0
 29 64  1  0
 29 65  1  0
 29 66  1  0
 32 67  1  0
M  END
>  <score>  (3) 
-7.701

$$$$
=
     RDKit          3D

 67 71  0  0  0  0  0  0  0  0999 V2000
    2.8330   59.3490   78.3310 C   0  0  2  0  0  0  0  0  0  0  0  0
    3.6640   58.1030   77.9310 C   0  0  0  0  0  0  0  0  0  0  0  0
    3.7800   58.1270   76.3950 C   0  0  0  0  0  0  0  0  0  0  0  0
    3.1500   59.4560   75.9700 C   0  0  2  0  0  0  0  0  0  0  0  0
    2.0510   59.6830   77.0220 C   0  0  1  0  0  0  0  0  0  0  0  0
    0.8450   58.7130   76.8890 C   0  0  0  0  0  0  0  0  0  0  0  0
    1.5650   61.1330   76.8660 C   0  0  0  0  0  0  0  0  0  0  0  0
    1.0980   61.5030   75.4270 C   0  0  1  0  0  0  0  0  0  0  0  0
    1.9930   60.9560   74.2840 C   0  0  0  0  0  0  0  0  0  0  0  0
    2.1900   61.6460   73.1260 C   0  0  0  0  0  0  0  0  0  0  0  0
    1.6670   63.0600   72.9030 C   0  0  0  0  0  0  0  0  0  0  0  0
    1.3660   63.4080   71.4550 C   0  0  0  0  0  0  0  0  0  0  0  0
    2.5280   63.0310   70.5830 C   0  0  0  0  0  0  0  0  0  0  0  0
    2.8820   63.6990   69.6150 O   0  0  0  0  0  0  0  0  0  0  0  0
    3.1770   61.7330   70.8560 C   0  0  0  0  0  0  0  0  0  0  0  0
    2.9530   61.0750   72.0060 C   0  0  0  0  0  0  0  0  0  0  0  0
    3.4660   59.6660   72.1450 C   0  0  0  0  0  0  0  0  0  0  0  0
    3.8470   59.3500   73.5760 C   0  0  0  0  0  0  0  0  0  0  0  0
    2.6580   59.5870   74.5220 C   0  0  1  0  0  0  0  0  0  0  0  0
   -0.4050   61.2860   75.2130 C   0  0  0  0  0  0  0  0  0  0  0  0
   -1.3160   61.8760   76.0970 C   0  0  0  0  0  0  0  0  0  0  0  0
   -2.7010   61.7210   75.9310 C   0  0  0  0  0  0  0  0  0  0  0  0
   -3.2550   60.9710   74.8810 C   0  0  0  0  0  0  0  0  0  0  0  0
   -2.3270   60.4120   73.9870 C   0  0  0  0  0  0  0  0  0  0  0  0
   -0.9390   60.5610   74.1440 C   0  0  0  0  0  0  0  0  0  0  0  0
   -4.6380   60.8320   74.7110 N   0  0  0  0  0  0  0  0  0  0  0  0
   -5.5140   61.8970   75.1950 C   0  0  0  0  0  0  0  0  0  0  0  0
   -5.2170   59.4900   74.7140 C   0  0  0  0  0  0  0  0  0  0  0  0
    5.3450   62.3830   79.6200 C   0  0  0  0  0  0  0  0  0  0  0  0
    4.4580   61.3110   79.1690 C   0  0  0  0  0  0  0  0  0  0  0  0
    3.7340   60.4260   78.7970 C   0  0  0  0  0  0  0  0  0  0  0  0
    1.9520   59.0260   79.3970 O   0  0  0  0  0  0  0  0  0  0  0  0
    4.6634   58.1504   78.3880 H   0  0  0  0  0  0  0  0  0  0  0  0
    3.1831   57.1767   78.2784 H   0  0  0  0  0  0  0  0  0  0  0  0
    4.8349   58.0832   76.0863 H   0  0  0  0  0  0  0  0  0  0  0  0
    3.2793   57.2652   75.9296 H   0  0  0  0  0  0  0  0  0  0  0  0
    3.9204   60.2408   75.9476 H   0  0  0  0  0  0  0  0  0  0  0  0
    0.4911   58.4284   77.8909 H   0  0  0  0  0  0  0  0  0  0  0  0
    0.0320   59.2117   76.3410 H   0  0  0  0  0  0  0  0  0  0  0  0
    1.1578   57.8120   76.3410 H   0  0  0  0  0  0  0  0  0  0  0  0
    0.7199   61.2885   77.5527 H   0  0  0  0  0  0  0  0  0  0  0  0
    2.4259   61.7791   77.0928 H   0  0  0  0  0  0  0  0  0  0  0  0
    1.2514   62.5899   75.3563 H   0  0  0  0  0  0  0  0  0  0  0  0
    0.7396   63.1770   73.4828 H   0  0  0  0  0  0  0  0  0  0  0  0
    2.4691   63.7407   73.2243 H   0  0  0  0  0  0  0  0  0  0  0  0
    0.4713   62.8586   71.1269 H   0  0  0  0  0  0  0  0  0  0  0  0
    1.1903   64.4908   71.3734 H   0  0  0  0  0  0  0  0  0  0  0  0
    3.8543   61.2980   70.1063 H   0  0  0  0  0  0  0  0  0  0  0  0
    2.6807   58.9667   71.8220 H   0  0  0  0  0  0  0  0  0  0  0  0
    4.3648   59.5639   71.5191 H   0  0  0  0  0  0  0  0  0  0  0  0
    4.1567   58.2966   73.6427 H   0  0  0  0  0  0  0  0  0  0  0  0
    4.6734   60.0114   73.8754 H   0  0  0  0  0  0  0  0  0  0  0  0
    1.8861   58.8300   74.3194 H   0  0  0  0  0  0  0  0  0  0  0  0
   -0.9384   62.4738   76.9396 H   0  0  0  0  0  0  0  0  0  0  0  0
   -3.3779   62.2051   76.6503 H   0  0  0  0  0  0  0  0  0  0  0  0
   -2.7022   59.8343   73.1294 H   0  0  0  0  0  0  0  0  0  0  0  0
   -0.2601   60.0987   73.4123 H   0  0  0  0  0  0  0  0  0  0  0  0
   -5.5156   61.8989   76.2950 H   0  0  0  0  0  0  0  0  0  0  0  0
   -5.1492   62.8674   74.8271 H   0  0  0  0  0  0  0  0  0  0  0  0
   -6.5365   61.7263   74.8271 H   0  0  0  0  0  0  0  0  0  0  0  0
   -5.3614   59.1553   75.7518 H   0  0  0  0  0  0  0  0  0  0  0  0
   -6.1873   59.5082   74.1962 H   0  0  0  0  0  0  0  0  0  0  0  0
   -4.5380   58.7966   74.1962 H   0  0  0  0  0  0  0  0  0  0  0  0
    5.3635   62.4054   80.7196 H   0  0  0  0  0  0  0  0  0  0  0  0
    6.3613   62.2024   79.2398 H   0  0  0  0  0  0  0  0  0  0  0  0
    4.9773   63.3475   79.2398 H   0  0  0  0  0  0  0  0  0  0  0  0
    2.4051   59.1921   80.2614 H   0  0  0  0  0  0  0  0  0  0  0  0
  2  1  1  0
  3  2  1  0
  4  3  1  0
  5  1  1  0
  5  4  1  0
  5  6  1  6
  7  5  1  0
  8  7  1  0
  9  8  1  0
 10  9  2  0
 11 10  1  0
 12 11  1  0
 13 12  1  0
 14 13  2  0
 15 13  1  0
 16 10  1  0
 16 15  2  0
 17 16  1  0
 18 17  1  0
 19  9  1  0
 19 18  1  0
 19  4  1  0
 20  8  1  0
 21 20  2  0
 22 21  1  0
 23 22  2  0
 24 23  1  0
 25 20  1  0
 25 24  2  0
 26 23  1  0
 27 26  1  0
 28 26  1  0
 30 29  1  0
 31 30  3  0
  1 31  1  1
 32  1  1  0
  2 33  1  0
  2 34  1  0
  3 35  1  0
  3 36  1  0
  4 37  1  1
  6 38  1  0
  6 39  1  0
  6 40  1  0
  7 41  1  0
  7 42  1  0
  8 43  1  1
 11 44  1  0
 11 45  1  0
 12 46  1  0
 12 47  1  0
 15 48  1  0
 17 49  1  0
 17 50  1  0
 18 51  1  0
 18 52  1  0
 19 53  1  6
 21 54  1  0
 22 55  1  0
 24 56  1  0
 25 57  1  0
 27 58  1  0
 27 59  1  0
 27 60  1  0
 28 61  1  0
 28 62  1  0
 28 63  1  0
 29 64  1  0
 29 65  1  0
 29 66  1  0
 32 67  1  0
M  END
>  <score>  (4) 
-7.475

$$$$
=
     RDKit          3D

 67 71  0  0  0  0  0  0  0  0999 V2000
    0.4360   63.5410   74.0570 C   0  0  2  0  0  0  0  0  0  0  0  0
    1.5060   63.8250   75.1430 C   0  0  0  0  0  0  0  0  0  0  0  0
    1.8570   62.4650   75.7780 C   0  0  0  0  0  0  0  0  0  0  0  0
    1.0990   61.4300   74.9430 C   0  0  2  0  0  0  0  0  0  0  0  0
   -0.1740   62.1790   74.5130 C   0  0  1  0  0  0  0  0  0  0  0  0
   -1.1740   62.4330   75.6740 C   0  0  0  0  0  0  0  0  0  0  0  0
   -0.8510   61.3330   73.4240 C   0  0  0  0  0  0  0  0  0  0  0  0
   -1.1390   59.8590   73.8400 C   0  0  1  0  0  0  0  0  0  0  0  0
   -0.0010   59.1660   74.6320 C   0  0  0  0  0  0  0  0  0  0  0  0
    0.2650   57.8350   74.5030 C   0  0  0  0  0  0  0  0  0  0  0  0
   -0.4330   56.9460   73.4820 C   0  0  0  0  0  0  0  0  0  0  0  0
   -0.5540   55.4850   73.8850 C   0  0  0  0  0  0  0  0  0  0  0  0
    0.7750   54.9690   74.3530 C   0  0  0  0  0  0  0  0  0  0  0  0
    1.1670   53.8280   74.1250 O   0  0  0  0  0  0  0  0  0  0  0  0
    1.5700   55.8590   75.2240 C   0  0  0  0  0  0  0  0  0  0  0  0
    1.2750   57.1650   75.3340 C   0  0  0  0  0  0  0  0  0  0  0  0
    1.9760   57.9780   76.3900 C   0  0  0  0  0  0  0  0  0  0  0  0
    2.1720   59.4130   75.9500 C   0  0  0  0  0  0  0  0  0  0  0  0
    0.8270   60.0580   75.5770 C   0  0  1  0  0  0  0  0  0  0  0  0
   -2.5360   59.6710   74.4430 C   0  0  0  0  0  0  0  0  0  0  0  0
   -3.5480   60.5850   74.1280 C   0  0  0  0  0  0  0  0  0  0  0  0
   -4.8470   60.4440   74.6420 C   0  0  0  0  0  0  0  0  0  0  0  0
   -5.2090   59.3900   75.4960 C   0  0  0  0  0  0  0  0  0  0  0  0
   -4.1890   58.4660   75.7760 C   0  0  0  0  0  0  0  0  0  0  0  0
   -2.8860   58.5990   75.2680 C   0  0  0  0  0  0  0  0  0  0  0  0
   -6.5100   59.2440   75.9930 N   0  0  0  0  0  0  0  0  0  0  0  0
   -7.0510   57.8970   76.1590 C   0  0  0  0  0  0  0  0  0  0  0  0
   -7.4940   60.2870   75.7070 C   0  0  0  0  0  0  0  0  0  0  0  0
    2.2280   63.4800   70.3210 C   0  0  0  0  0  0  0  0  0  0  0  0
    1.5960   63.4980   71.6390 C   0  0  0  0  0  0  0  0  0  0  0  0
    1.0710   63.5110   72.7210 C   0  0  0  0  0  0  0  0  0  0  0  0
   -0.5390   64.5740   74.0530 O   0  0  0  0  0  0  0  0  0  0  0  0
    2.4008   64.2736   74.6867 H   0  0  0  0  0  0  0  0  0  0  0  0
    1.1291   64.5309   75.8977 H   0  0  0  0  0  0  0  0  0  0  0  0
    2.9407   62.2833   75.7281 H   0  0  0  0  0  0  0  0  0  0  0  0
    1.5789   62.4216   76.8414 H   0  0  0  0  0  0  0  0  0  0  0  0
    1.7283   61.0969   74.1045 H   0  0  0  0  0  0  0  0  0  0  0  0
   -0.6587   62.3021   76.6370 H   0  0  0  0  0  0  0  0  0  0  0  0
   -1.5646   63.4589   75.6036 H   0  0  0  0  0  0  0  0  0  0  0  0
   -2.0069   61.7179   75.6036 H   0  0  0  0  0  0  0  0  0  0  0  0
   -1.8072   61.8098   73.1627 H   0  0  0  0  0  0  0  0  0  0  0  0
   -0.1486   61.2891   72.5786 H   0  0  0  0  0  0  0  0  0  0  0  0
   -1.1506   59.3000   72.8927 H   0  0  0  0  0  0  0  0  0  0  0  0
   -1.4467   57.3414   73.3204 H   0  0  0  0  0  0  0  0  0  0  0  0
    0.1907   56.9665   72.5761 H   0  0  0  0  0  0  0  0  0  0  0  0
   -1.2880   55.3914   74.6989 H   0  0  0  0  0  0  0  0  0  0  0  0
   -0.8833   54.8971   73.0156 H   0  0  0  0  0  0  0  0  0  0  0  0
    2.4169   55.4457   75.7914 H   0  0  0  0  0  0  0  0  0  0  0  0
    1.3720   57.9659   77.3093 H   0  0  0  0  0  0  0  0  0  0  0  0
    2.9669   57.5335   76.5649 H   0  0  0  0  0  0  0  0  0  0  0  0
    2.6297   59.9830   76.7720 H   0  0  0  0  0  0  0  0  0  0  0  0
    2.8260   59.4245   75.0656 H   0  0  0  0  0  0  0  0  0  0  0  0
    0.2270   60.1804   76.4908 H   0  0  0  0  0  0  0  0  0  0  0  0
   -3.3209   61.4318   73.4636 H   0  0  0  0  0  0  0  0  0  0  0  0
   -5.6095   61.1870   74.3653 H   0  0  0  0  0  0  0  0  0  0  0  0
   -4.4196   57.6037   76.4188 H   0  0  0  0  0  0  0  0  0  0  0  0
   -2.1271   57.8451   75.5245 H   0  0  0  0  0  0  0  0  0  0  0  0
   -7.1429   57.6683   77.2310 H   0  0  0  0  0  0  0  0  0  0  0  0
   -8.0422   57.8390   75.6855 H   0  0  0  0  0  0  0  0  0  0  0  0
   -6.3753   57.1695   75.6855 H   0  0  0  0  0  0  0  0  0  0  0  0
   -7.8800   60.6961   76.6523 H   0  0  0  0  0  0  0  0  0  0  0  0
   -7.0179   61.0911   75.1267 H   0  0  0  0  0  0  0  0  0  0  0  0
   -8.3244   59.8584   75.1267 H   0  0  0  0  0  0  0  0  0  0  0  0
    3.3212   63.4489   70.4390 H   0  0  0  0  0  0  0  0  0  0  0  0
    1.8936   62.5910   69.7661 H   0  0  0  0  0  0  0  0  0  0  0  0
    1.9448   64.3866   69.7661 H   0  0  0  0  0  0  0  0  0  0  0  0
   -0.7673   64.8159   74.9854 H   0  0  0  0  0  0  0  0  0  0  0  0
  2  1  1  0
  3  2  1  0
  4  3  1  0
  5  1  1  0
  5  4  1  0
  5  6  1  1
  7  5  1  0
  8  7  1  0
  9  8  1  0
 10  9  2  0
 11 10  1  0
 12 11  1  0
 13 12  1  0
 14 13  2  0
 15 13  1  0
 16 10  1  0
 16 15  2  0
 17 16  1  0
 18 17  1  0
 19  9  1  0
 19 18  1  0
 19  4  1  0
 20  8  1  0
 21 20  2  0
 22 21  1  0
 23 22  2  0
 24 23  1  0
 25 20  1  0
 25 24  2  0
 26 23  1  0
 27 26  1  0
 28 26  1  0
 30 29  1  0
 31 30  3  0
  1 31  1  6
 32  1  1  0
  2 33  1  0
  2 34  1  0
  3 35  1  0
  3 36  1  0
  4 37  1  6
  6 38  1  0
  6 39  1  0
  6 40  1  0
  7 41  1  0
  7 42  1  0
  8 43  1  6
 11 44  1  0
 11 45  1  0
 12 46  1  0
 12 47  1  0
 15 48  1  0
 17 49  1  0
 17 50  1  0
 18 51  1  0
 18 52  1  0
 19 53  1  1
 21 54  1  0
 22 55  1  0
 24 56  1  0
 25 57  1  0
 27 58  1  0
 27 59  1  0
 27 60  1  0
 28 61  1  0
 28 62  1  0
 28 63  1  0
 29 64  1  0
 29 65  1  0
 29 66  1  0
 32 67  1  0
M  END
>  <score>  (5) 
-7.359

$$$$
=
     RDKit          3D

 67 71  0  0  0  0  0  0  0  0999 V2000
   -2.0020   61.8990   76.7420 C   0  0  2  0  0  0  0  0  0  0  0  0
   -1.7130   63.4180   76.6220 C   0  0  0  0  0  0  0  0  0  0  0  0
   -0.5170   63.5610   75.6600 C   0  0  0  0  0  0  0  0  0  0  0  0
   -0.2540   62.1460   75.1410 C   0  0  2  0  0  0  0  0  0  0  0  0
   -0.6450   61.2490   76.3280 C   0  0  1  0  0  0  0  0  0  0  0  0
    0.3420   61.3280   77.5250 C   0  0  0  0  0  0  0  0  0  0  0  0
   -0.7070   59.8060   75.8050 C   0  0  0  0  0  0  0  0  0  0  0  0
    0.5920   59.3220   75.0960 C   0  0  1  0  0  0  0  0  0  0  0  0
    1.2520   60.3600   74.1530 C   0  0  0  0  0  0  0  0  0  0  0  0
    1.9010   59.9930   73.0120 C   0  0  0  0  0  0  0  0  0  0  0  0
    1.9210   58.5600   72.4950 C   0  0  0  0  0  0  0  0  0  0  0  0
    3.1530   58.1910   71.6850 C   0  0  0  0  0  0  0  0  0  0  0  0
    3.4110   59.2340   70.6360 C   0  0  0  0  0  0  0  0  0  0  0  0
    3.8330   58.9650   69.5160 O   0  0  0  0  0  0  0  0  0  0  0  0
    3.2530   60.6450   71.0430 C   0  0  0  0  0  0  0  0  0  0  0  0
    2.6140   60.9720   72.1800 C   0  0  0  0  0  0  0  0  0  0  0  0
    2.6660   62.4000   72.6530 C   0  0  0  0  0  0  0  0  0  0  0  0
    1.3990   62.7910   73.3850 C   0  0  0  0  0  0  0  0  0  0  0  0
    1.1360   61.8410   74.5650 C   0  0  1  0  0  0  0  0  0  0  0  0
    1.5680   58.6230   76.0510 C   0  0  0  0  0  0  0  0  0  0  0  0
    1.1130   57.5610   76.8410 C   0  0  0  0  0  0  0  0  0  0  0  0
    1.9740   56.8800   77.7170 C   0  0  0  0  0  0  0  0  0  0  0  0
    3.3300   57.2170   77.8540 C   0  0  0  0  0  0  0  0  0  0  0  0
    3.7750   58.2640   77.0310 C   0  0  0  0  0  0  0  0  0  0  0  0
    2.9220   58.9530   76.1530 C   0  0  0  0  0  0  0  0  0  0  0  0
    4.1880   56.5230   78.7170 N   0  0  0  0  0  0  0  0  0  0  0  0
    3.6780   56.0930   80.0170 C   0  0  0  0  0  0  0  0  0  0  0  0
    5.6200   56.8100   78.6650 C   0  0  0  0  0  0  0  0  0  0  0  0
   -5.2130   60.8630   74.3360 C   0  0  0  0  0  0  0  0  0  0  0  0
   -4.0800   61.2320   75.1840 C   0  0  0  0  0  0  0  0  0  0  0  0
   -3.1450   61.5340   75.8760 C   0  0  0  0  0  0  0  0  0  0  0  0
   -2.3490   61.5730   78.0800 O   0  0  0  0  0  0  0  0  0  0  0  0
   -2.5916   63.9412   76.2165 H   0  0  0  0  0  0  0  0  0  0  0  0
   -1.4885   63.8592   77.6043 H   0  0  0  0  0  0  0  0  0  0  0  0
   -0.7679   64.2370   74.8293 H   0  0  0  0  0  0  0  0  0  0  0  0
    0.3653   63.9885   76.1588 H   0  0  0  0  0  0  0  0  0  0  0  0
   -0.8467   61.9691   74.2314 H   0  0  0  0  0  0  0  0  0  0  0  0
   -0.2216   61.2829   78.4686 H   0  0  0  0  0  0  0  0  0  0  0  0
    1.0449   60.4832   77.4770 H   0  0  0  0  0  0  0  0  0  0  0  0
    0.9016   62.2738   77.4770 H   0  0  0  0  0  0  0  0  0  0  0  0
   -0.9023   59.1392   76.6578 H   0  0  0  0  0  0  0  0  0  0  0  0
   -1.5054   59.7804   75.0487 H   0  0  0  0  0  0  0  0  0  0  0  0
    0.2535   58.5419   74.3982 H   0  0  0  0  0  0  0  0  0  0  0  0
    1.8653   57.8833   73.3605 H   0  0  0  0  0  0  0  0  0  0  0  0
    1.0628   58.4651   71.8134 H   0  0  0  0  0  0  0  0  0  0  0  0
    4.0230   58.1256   72.3550 H   0  0  0  0  0  0  0  0  0  0  0  0
    2.9849   57.2207   71.1949 H   0  0  0  0  0  0  0  0  0  0  0  0
    3.6648   61.4413   70.4056 H   0  0  0  0  0  0  0  0  0  0  0  0
    3.5225   62.5200   73.3327 H   0  0  0  0  0  0  0  0  0  0  0  0
    2.7694   63.0508   71.7722 H   0  0  0  0  0  0  0  0  0  0  0  0
    1.5042   63.8179   73.7650 H   0  0  0  0  0  0  0  0  0  0  0  0
    0.5529   62.7271   72.6850 H   0  0  0  0  0  0  0  0  0  0  0  0
    1.9044   62.0091   75.3339 H   0  0  0  0  0  0  0  0  0  0  0  0
    0.0590   57.2533   76.7744 H   0  0  0  0  0  0  0  0  0  0  0  0
    1.5709   56.0517   78.3182 H   0  0  0  0  0  0  0  0  0  0  0  0
    4.8345   58.5565   77.0756 H   0  0  0  0  0  0  0  0  0  0  0  0
    3.3273   59.7673   75.5344 H   0  0  0  0  0  0  0  0  0  0  0  0
    4.2554   56.5799   80.8167 H   0  0  0  0  0  0  0  0  0  0  0  0
    2.6184   56.3744   80.1065 H   0  0  0  0  0  0  0  0  0  0  0  0
    3.7762   55.0011   80.1065 H   0  0  0  0  0  0  0  0  0  0  0  0
    6.0155   56.8893   79.6884 H   0  0  0  0  0  0  0  0  0  0  0  0
    6.1377   55.9978   78.1337 H   0  0  0  0  0  0  0  0  0  0  0  0
    5.7847   57.7590   78.1337 H   0  0  0  0  0  0  0  0  0  0  0  0
   -6.0688   60.5843   74.9684 H   0  0  0  0  0  0  0  0  0  0  0  0
   -5.4893   61.7176   73.7009 H   0  0  0  0  0  0  0  0  0  0  0  0
   -4.9330   60.0096   73.7009 H   0  0  0  0  0  0  0  0  0  0  0  0
   -1.7887   62.0994   78.7038 H   0  0  0  0  0  0  0  0  0  0  0  0
  2  1  1  0
  3  2  1  0
  4  3  1  0
  5  1  1  0
  5  4  1  0
  5  6  1  1
  7  5  1  0
  8  7  1  0
  9  8  1  0
 10  9  2  0
 11 10  1  0
 12 11  1  0
 13 12  1  0
 14 13  2  0
 15 13  1  0
 16 10  1  0
 16 15  2  0
 17 16  1  0
 18 17  1  0
 19  9  1  0
 19 18  1  0
 19  4  1  0
 20  8  1  0
 21 20  2  0
 22 21  1  0
 23 22  2  0
 24 23  1  0
 25 20  1  0
 25 24  2  0
 26 23  1  0
 27 26  1  0
 28 26  1  0
 30 29  1  0
 31 30  3  0
  1 31  1  6
 32  1  1  0
  2 33  1  0
  2 34  1  0
  3 35  1  0
  3 36  1  0
  4 37  1  6
  6 38  1  0
  6 39  1  0
  6 40  1  0
  7 41  1  0
  7 42  1  0
  8 43  1  6
 11 44  1  0
 11 45  1  0
 12 46  1  0
 12 47  1  0
 15 48  1  0
 17 49  1  0
 17 50  1  0
 18 51  1  0
 18 52  1  0
 19 53  1  1
 21 54  1  0
 22 55  1  0
 24 56  1  0
 25 57  1  0
 27 58  1  0
 27 59  1  0
 27 60  1  0
 28 61  1  0
 28 62  1  0
 28 63  1  0
 29 64  1  0
 29 65  1  0
 29 66  1  0
 32 67  1  0
M  END
>  <score>  (6) 
-7.243

$$$$
=
     RDKit          3D

 67 71  0  0  0  0  0  0  0  0999 V2000
   -0.2350   55.5020   74.1010 C   0  0  2  0  0  0  0  0  0  0  0  0
    0.9450   54.5420   74.4000 C   0  0  0  0  0  0  0  0  0  0  0  0
    1.9800   55.3550   75.2020 C   0  0  0  0  0  0  0  0  0  0  0  0
    1.3030   56.7020   75.4710 C   0  0  2  0  0  0  0  0  0  0  0  0
    0.4190   56.9130   74.2300 C   0  0  1  0  0  0  0  0  0  0  0  0
    1.2190   57.2220   72.9350 C   0  0  0  0  0  0  0  0  0  0  0  0
   -0.5290   58.0820   74.5420 C   0  0  0  0  0  0  0  0  0  0  0  0
    0.1890   59.3890   74.9910 C   0  0  1  0  0  0  0  0  0  0  0  0
    1.3680   59.1860   75.9770 C   0  0  0  0  0  0  0  0  0  0  0  0
    1.6590   60.0910   76.9540 C   0  0  0  0  0  0  0  0  0  0  0  0
    0.7820   61.3010   77.2510 C   0  0  0  0  0  0  0  0  0  0  0  0
    1.5210   62.4980   77.8260 C   0  0  0  0  0  0  0  0  0  0  0  0
    2.3910   62.0660   78.9690 C   0  0  0  0  0  0  0  0  0  0  0  0
    2.5670   62.7520   79.9720 O   0  0  0  0  0  0  0  0  0  0  0  0
    3.1490   60.8100   78.7960 C   0  0  0  0  0  0  0  0  0  0  0  0
    2.8400   59.9440   77.8160 C   0  0  0  0  0  0  0  0  0  0  0  0
    3.7710   58.7900   77.5520 C   0  0  0  0  0  0  0  0  0  0  0  0
    3.0200   57.5700   77.0610 C   0  0  0  0  0  0  0  0  0  0  0  0
    2.2010   57.9020   75.8030 C   0  0  1  0  0  0  0  0  0  0  0  0
    0.4950   60.3340   73.8230 C   0  0  0  0  0  0  0  0  0  0  0  0
   -0.5450   61.0690   73.2430 C   0  0  0  0  0  0  0  0  0  0  0  0
   -0.3100   61.9590   72.1830 C   0  0  0  0  0  0  0  0  0  0  0  0
    0.9690   62.1650   71.6420 C   0  0  0  0  0  0  0  0  0  0  0  0
    2.0050   61.4420   72.2560 C   0  0  0  0  0  0  0  0  0  0  0  0
    1.7800   60.5490   73.3160 C   0  0  0  0  0  0  0  0  0  0  0  0
    1.2010   63.0670   70.5960 N   0  0  0  0  0  0  0  0  0  0  0  0
    2.4820   63.0140   69.8950 C   0  0  0  0  0  0  0  0  0  0  0  0
    0.5640   64.3820   70.6450 C   0  0  0  0  0  0  0  0  0  0  0  0
   -3.3140   54.7960   76.7840 C   0  0  0  0  0  0  0  0  0  0  0  0
   -2.2300   55.0480   75.8360 C   0  0  0  0  0  0  0  0  0  0  0  0
   -1.3410   55.2510   75.0520 C   0  0  0  0  0  0  0  0  0  0  0  0
   -0.7290   55.2740   72.7890 O   0  0  0  0  0  0  0  0  0  0  0  0
    0.5953   53.6833   74.9919 H   0  0  0  0  0  0  0  0  0  0  0  0
    1.3826   54.1489   73.4705 H   0  0  0  0  0  0  0  0  0  0  0  0
    2.2214   54.8478   76.1478 H   0  0  0  0  0  0  0  0  0  0  0  0
    2.9279   55.4705   74.6560 H   0  0  0  0  0  0  0  0  0  0  0  0
    0.7443   56.6535   76.4173 H   0  0  0  0  0  0  0  0  0  0  0  0
    2.2144   57.6065   73.2019 H   0  0  0  0  0  0  0  0  0  0  0  0
    1.3282   56.3014   72.3430 H   0  0  0  0  0  0  0  0  0  0  0  0
    0.6809   57.9770   72.3430 H   0  0  0  0  0  0  0  0  0  0  0  0
   -1.1122   58.3035   73.6360 H   0  0  0  0  0  0  0  0  0  0  0  0
   -1.1559   57.7614   75.3872 H   0  0  0  0  0  0  0  0  0  0  0  0
   -0.5541   59.9159   75.6076 H   0  0  0  0  0  0  0  0  0  0  0  0
    0.3016   61.6141   76.3123 H   0  0  0  0  0  0  0  0  0  0  0  0
    0.0639   60.9815   78.0206 H   0  0  0  0  0  0  0  0  0  0  0  0
    2.1472   62.9497   77.0425 H   0  0  0  0  0  0  0  0  0  0  0  0
    0.7879   63.2333   78.1893 H   0  0  0  0  0  0  0  0  0  0  0  0
    3.9792   60.5800   79.4800 H   0  0  0  0  0  0  0  0  0  0  0  0
    4.5036   59.0897   76.7882 H   0  0  0  0  0  0  0  0  0  0  0  0
    4.2724   58.5291   78.4957 H   0  0  0  0  0  0  0  0  0  0  0  0
    3.7413   56.7746   76.8221 H   0  0  0  0  0  0  0  0  0  0  0  0
    2.3316   57.2380   77.8521 H   0  0  0  0  0  0  0  0  0  0  0  0
    2.8925   58.0934   74.9692 H   0  0  0  0  0  0  0  0  0  0  0  0
   -1.5689   60.9468   73.6260 H   0  0  0  0  0  0  0  0  0  0  0  0
   -1.1596   62.5156   71.7606 H   0  0  0  0  0  0  0  0  0  0  0  0
    3.0337   61.5809   71.8919 H   0  0  0  0  0  0  0  0  0  0  0  0
    2.6310   60.0083   73.7558 H   0  0  0  0  0  0  0  0  0  0  0  0
    3.3005   62.9801   70.6291 H   0  0  0  0  0  0  0  0  0  0  0  0
    2.5178   62.1136   69.2641 H   0  0  0  0  0  0  0  0  0  0  0  0
    2.5920   63.9084   69.2641 H   0  0  0  0  0  0  0  0  0  0  0  0
    0.4194   64.6805   71.6938 H   0  0  0  0  0  0  0  0  0  0  0  0
    1.2050   65.1190   70.1390 H   0  0  0  0  0  0  0  0  0  0  0  0
   -0.4116   64.3359   70.1390 H   0  0  0  0  0  0  0  0  0  0  0  0
   -2.9308   54.8851   77.8113 H   0  0  0  0  0  0  0  0  0  0  0  0
   -4.1168   55.5315   76.6270 H   0  0  0  0  0  0  0  0  0  0  0  0
   -3.7100   53.7818   76.6270 H   0  0  0  0  0  0  0  0  0  0  0  0
   -1.6266   54.8597   72.8417 H   0  0  0  0  0  0  0  0  0  0  0  0
  2  1  1  0
  3  2  1  0
  4  3  1  0
  5  1  1  0
  5  4  1  0
  5  6  1  6
  7  5  1  0
  8  7  1  0
  9  8  1  0
 10  9  2  0
 11 10  1  0
 12 11  1  0
 13 12  1  0
 14 13  2  0
 15 13  1  0
 16 10  1  0
 16 15  2  0
 17 16  1  0
 18 17  1  0
 19  9  1  0
 19 18  1  0
 19  4  1  0
 20  8  1  0
 21 20  2  0
 22 21  1  0
 23 22  2  0
 24 23  1  0
 25 20  1  0
 25 24  2  0
 26 23  1  0
 27 26  1  0
 28 26  1  0
 30 29  1  0
 31 30  3  0
  1 31  1  1
 32  1  1  0
  2 33  1  0
  2 34  1  0
  3 35  1  0
  3 36  1  0
  4 37  1  1
  6 38  1  0
  6 39  1  0
  6 40  1  0
  7 41  1  0
  7 42  1  0
  8 43  1  1
 11 44  1  0
 11 45  1  0
 12 46  1  0
 12 47  1  0
 15 48  1  0
 17 49  1  0
 17 50  1  0
 18 51  1  0
 18 52  1  0
 19 53  1  6
 21 54  1  0
 22 55  1  0
 24 56  1  0
 25 57  1  0
 27 58  1  0
 27 59  1  0
 27 60  1  0
 28 61  1  0
 28 62  1  0
 28 63  1  0
 29 64  1  0
 29 65  1  0
 29 66  1  0
 32 67  1  0
M  END
>  <score>  (7) 
-7.091

$$$$
=
     RDKit          3D

 67 71  0  0  0  0  0  0  0  0999 V2000
   -5.1900   60.1350   76.4540 C   0  0  2  0  0  0  0  0  0  0  0  0
   -5.2400   61.2620   77.5170 C   0  0  0  0  0  0  0  0  0  0  0  0
   -3.9510   62.0870   77.3410 C   0  0  0  0  0  0  0  0  0  0  0  0
   -3.2760   61.5100   76.0940 C   0  0  2  0  0  0  0  0  0  0  0  0
   -3.6670   60.0220   76.1320 C   0  0  1  0  0  0  0  0  0  0  0  0
   -2.9680   59.2190   77.2630 C   0  0  0  0  0  0  0  0  0  0  0  0
   -3.2970   59.4210   74.7670 C   0  0  0  0  0  0  0  0  0  0  0  0
   -1.8120   59.6360   74.3510 C   0  0  1  0  0  0  0  0  0  0  0  0
   -1.2430   61.0470   74.6520 C   0  0  0  0  0  0  0  0  0  0  0  0
   -0.3240   61.6450   73.8410 C   0  0  0  0  0  0  0  0  0  0  0  0
    0.1210   61.0490   72.5120 C   0  0  0  0  0  0  0  0  0  0  0  0
    1.5350   61.4160   72.0900 C   0  0  0  0  0  0  0  0  0  0  0  0
    1.7380   62.8980   72.2060 C   0  0  0  0  0  0  0  0  0  0  0  0
    2.4140   63.5440   71.4100 O   0  0  0  0  0  0  0  0  0  0  0  0
    1.1870   63.5580   73.4070 C   0  0  0  0  0  0  0  0  0  0  0  0
    0.2880   62.9350   74.1890 C   0  0  0  0  0  0  0  0  0  0  0  0
   -0.0790   63.5620   75.5070 C   0  0  0  0  0  0  0  0  0  0  0  0
   -1.5160   63.2660   75.8840 C   0  0  0  0  0  0  0  0  0  0  0  0
   -1.7710   61.7510   75.9170 C   0  0  1  0  0  0  0  0  0  0  0  0
   -0.8990   58.4810   74.7780 C   0  0  0  0  0  0  0  0  0  0  0  0
   -1.1760   57.1850   74.3290 C   0  0  0  0  0  0  0  0  0  0  0  0
   -0.3590   56.0980   74.6790 C   0  0  0  0  0  0  0  0  0  0  0  0
    0.7750   56.2410   75.4950 C   0  0  0  0  0  0  0  0  0  0  0  0
    1.0550   57.5530   75.9120 C   0  0  0  0  0  0  0  0  0  0  0  0
    0.2430   58.6460   75.5670 C   0  0  0  0  0  0  0  0  0  0  0  0
    1.5970   55.1570   75.8280 N   0  0  0  0  0  0  0  0  0  0  0  0
    1.9390   54.1900   74.7870 C   0  0  0  0  0  0  0  0  0  0  0  0
    1.5420   54.6240   77.1880 C   0  0  0  0  0  0  0  0  0  0  0  0
   -7.5460   61.1790   73.2080 C   0  0  0  0  0  0  0  0  0  0  0  0
   -6.7140   60.8070   74.3520 C   0  0  0  0  0  0  0  0  0  0  0  0
   -6.0350   60.4980   75.2940 C   0  0  0  0  0  0  0  0  0  0  0  0
   -5.6990   58.9260   77.0000 O   0  0  0  0  0  0  0  0  0  0  0  0
   -6.1231   61.8977   77.3555 H   0  0  0  0  0  0  0  0  0  0  0  0
   -5.3111   60.8472   78.5333 H   0  0  0  0  0  0  0  0  0  0  0  0
   -4.1902   63.1505   77.1936 H   0  0  0  0  0  0  0  0  0  0  0  0
   -3.3004   62.0293   78.2261 H   0  0  0  0  0  0  0  0  0  0  0  0
   -3.6291   62.0447   75.1999 H   0  0  0  0  0  0  0  0  0  0  0  0
   -3.2988   59.5990   78.2408 H   0  0  0  0  0  0  0  0  0  0  0  0
   -3.2325   58.1549   77.1746 H   0  0  0  0  0  0  0  0  0  0  0  0
   -1.8776   59.3343   77.1746 H   0  0  0  0  0  0  0  0  0  0  0  0
   -3.4909   58.3388   74.8036 H   0  0  0  0  0  0  0  0  0  0  0  0
   -3.9115   59.9415   74.0177 H   0  0  0  0  0  0  0  0  0  0  0  0
   -1.8250   59.6089   73.2514 H   0  0  0  0  0  0  0  0  0  0  0  0
    0.0610   59.9535   72.5911 H   0  0  0  0  0  0  0  0  0  0  0  0
   -0.5489   61.4663   71.7458 H   0  0  0  0  0  0  0  0  0  0  0  0
    2.2551   60.8979   72.7404 H   0  0  0  0  0  0  0  0  0  0  0  0
    1.6897   61.1116   71.0443 H   0  0  0  0  0  0  0  0  0  0  0  0
    1.5172   64.5749   73.6657 H   0  0  0  0  0  0  0  0  0  0  0  0
    0.5845   63.1639   76.2888 H   0  0  0  0  0  0  0  0  0  0  0  0
    0.0347   64.6521   75.4131 H   0  0  0  0  0  0  0  0  0  0  0  0
   -1.7220   63.6880   76.8787 H   0  0  0  0  0  0  0  0  0  0  0  0
   -2.1782   63.7185   75.1312 H   0  0  0  0  0  0  0  0  0  0  0  0
   -1.2203   61.3173   76.7647 H   0  0  0  0  0  0  0  0  0  0  0  0
   -2.0532   57.0140   73.6877 H   0  0  0  0  0  0  0  0  0  0  0  0
   -0.6166   55.0979   74.3002 H   0  0  0  0  0  0  0  0  0  0  0  0
    1.9452   57.7314   76.5331 H   0  0  0  0  0  0  0  0  0  0  0  0
    0.5110   59.6511   75.9246 H   0  0  0  0  0  0  0  0  0  0  0  0
    2.2711   53.2509   75.2537 H   0  0  0  0  0  0  0  0  0  0  0  0
    1.0549   53.9961   74.1619 H   0  0  0  0  0  0  0  0  0  0  0  0
    2.7484   54.5951   74.1619 H   0  0  0  0  0  0  0  0  0  0  0  0
    1.6272   55.4501   77.9093 H   0  0  0  0  0  0  0  0  0  0  0  0
    0.5853   54.1026   77.3391 H   0  0  0  0  0  0  0  0  0  0  0  0
    2.3721   53.9182   77.3391 H   0  0  0  0  0  0  0  0  0  0  0  0
   -8.4951   61.6033   73.5674 H   0  0  0  0  0  0  0  0  0  0  0  0
   -7.0177   61.9266   72.5981 H   0  0  0  0  0  0  0  0  0  0  0  0
   -7.7509   60.2868   72.5981 H   0  0  0  0  0  0  0  0  0  0  0  0
   -5.6780   58.9758   77.9885 H   0  0  0  0  0  0  0  0  0  0  0  0
  2  1  1  0
  3  2  1  0
  4  3  1  0
  5  1  1  0
  5  4  1  0
  5  6  1  1
  7  5  1  0
  8  7  1  0
  9  8  1  0
 10  9  2  0
 11 10  1  0
 12 11  1  0
 13 12  1  0
 14 13  2  0
 15 13  1  0
 16 10  1  0
 16 15  2  0
 17 16  1  0
 18 17  1  0
 19  9  1  0
 19 18  1  0
 19  4  1  0
 20  8  1  0
 21 20  2  0
 22 21  1  0
 23 22  2  0
 24 23  1  0
 25 20  1  0
 25 24  2  0
 26 23  1  0
 27 26  1  0
 28 26  1  0
 30 29  1  0
 31 30  3  0
  1 31  1  6
 32  1  1  0
  2 33  1  0
  2 34  1  0
  3 35  1  0
  3 36  1  0
  4 37  1  6
  6 38  1  0
  6 39  1  0
  6 40  1  0
  7 41  1  0
  7 42  1  0
  8 43  1  6
 11 44  1  0
 11 45  1  0
 12 46  1  0
 12 47  1  0
 15 48  1  0
 17 49  1  0
 17 50  1  0
 18 51  1  0
 18 52  1  0
 19 53  1  1
 21 54  1  0
 22 55  1  0
 24 56  1  0
 25 57  1  0
 27 58  1  0
 27 59  1  0
 27 60  1  0
 28 61  1  0
 28 62  1  0
 28 63  1  0
 29 64  1  0
 29 65  1  0
 29 66  1  0
 32 67  1  0
M  END
>  <score>  (8) 
-6.957

$$$$
=
     RDKit          3D

 67 71  0  0  0  0  0  0  0  0999 V2000
    2.7110   61.2350   72.7550 C   0  0  2  0  0  0  0  0  0  0  0  0
    3.9900   61.2290   73.6310 C   0  0  0  0  0  0  0  0  0  0  0  0
    3.8270   60.0720   74.6360 C   0  0  0  0  0  0  0  0  0  0  0  0
    2.5410   59.3570   74.2120 C   0  0  2  0  0  0  0  0  0  0  0  0
    1.6700   60.4920   73.6480 C   0  0  1  0  0  0  0  0  0  0  0  0
    1.1380   61.4720   74.7300 C   0  0  0  0  0  0  0  0  0  0  0  0
    0.4860   59.8360   72.9190 C   0  0  0  0  0  0  0  0  0  0  0  0
   -0.3300   58.8350   73.7900 C   0  0  1  0  0  0  0  0  0  0  0  0
    0.5200   57.9010   74.6880 C   0  0  0  0  0  0  0  0  0  0  0  0
    0.1420   56.6200   74.9650 C   0  0  0  0  0  0  0  0  0  0  0  0
   -1.0650   55.9540   74.3150 C   0  0  0  0  0  0  0  0  0  0  0  0
   -1.7320   54.8810   75.1600 C   0  0  0  0  0  0  0  0  0  0  0  0
   -0.7010   53.9240   75.6850 C   0  0  0  0  0  0  0  0  0  0  0  0
   -0.9060   52.7190   75.8000 O   0  0  0  0  0  0  0  0  0  0  0  0
    0.5600   54.5070   76.1850 C   0  0  0  0  0  0  0  0  0  0  0  0
    0.8980   55.7760   75.9010 C   0  0  0  0  0  0  0  0  0  0  0  0
    2.0810   56.3850   76.6070 C   0  0  0  0  0  0  0  0  0  0  0  0
    2.7950   57.3920   75.7300 C   0  0  0  0  0  0  0  0  0  0  0  0
    1.8270   58.4880   75.2570 C   0  0  1  0  0  0  0  0  0  0  0  0
   -1.5150   59.4950   74.5050 C   0  0  0  0  0  0  0  0  0  0  0  0
   -2.2390   60.4990   73.8510 C   0  0  0  0  0  0  0  0  0  0  0  0
   -3.3420   61.1190   74.4590 C   0  0  0  0  0  0  0  0  0  0  0  0
   -3.7840   60.7770   75.7460 C   0  0  0  0  0  0  0  0  0  0  0  0
   -3.0650   59.7470   76.3750 C   0  0  0  0  0  0  0  0  0  0  0  0
   -1.9600   59.1200   75.7760 C   0  0  0  0  0  0  0  0  0  0  0  0
   -4.8950   61.3870   76.3410 N   0  0  0  0  0  0  0  0  0  0  0  0
   -6.0080   60.5460   76.7770 C   0  0  0  0  0  0  0  0  0  0  0  0
   -5.2530   62.7460   75.9370 C   0  0  0  0  0  0  0  0  0  0  0  0
    3.4700   59.3690   69.1330 C   0  0  0  0  0  0  0  0  0  0  0  0
    3.2010   60.0300   70.4090 C   0  0  0  0  0  0  0  0  0  0  0  0
    2.9860   60.5770   71.4580 C   0  0  0  0  0  0  0  0  0  0  0  0
    2.3110   62.5710   72.4880 O   0  0  0  0  0  0  0  0  0  0  0  0
    4.8791   61.0654   73.0042 H   0  0  0  0  0  0  0  0  0  0  0  0
    4.1216   62.1903   74.1492 H   0  0  0  0  0  0  0  0  0  0  0  0
    4.6863   59.3875   74.5803 H   0  0  0  0  0  0  0  0  0  0  0  0
    3.7770   60.4308   75.6746 H   0  0  0  0  0  0  0  0  0  0  0  0
    2.7776   58.5683   73.4827 H   0  0  0  0  0  0  0  0  0  0  0  0
    1.3570   61.0686   75.7296 H   0  0  0  0  0  0  0  0  0  0  0  0
    1.6295   62.4491   74.6132 H   0  0  0  0  0  0  0  0  0  0  0  0
    0.0508   61.5921   74.6132 H   0  0  0  0  0  0  0  0  0  0  0  0
   -0.1939   60.6320   72.5811 H   0  0  0  0  0  0  0  0  0  0  0  0
    0.9117   59.2548   72.0877 H   0  0  0  0  0  0  0  0  0  0  0  0
   -0.7752   58.1360   73.0667 H   0  0  0  0  0  0  0  0  0  0  0  0
   -1.8111   56.7330   74.0996 H   0  0  0  0  0  0  0  0  0  0  0  0
   -0.6916   55.4495   73.4117 H   0  0  0  0  0  0  0  0  0  0  0  0
   -2.2528   55.3547   76.0052 H   0  0  0  0  0  0  0  0  0  0  0  0
   -2.4527   54.3292   74.5387 H   0  0  0  0  0  0  0  0  0  0  0  0
    1.2337   53.8924   76.8001 H   0  0  0  0  0  0  0  0  0  0  0  0
    1.7311   56.8905   77.5191 H   0  0  0  0  0  0  0  0  0  0  0  0
    2.7883   55.5789   76.8517 H   0  0  0  0  0  0  0  0  0  0  0  0
    3.6113   57.8551   76.3038 H   0  0  0  0  0  0  0  0  0  0  0  0
    3.1946   56.8702   74.8479 H   0  0  0  0  0  0  0  0  0  0  0  0
    1.5389   59.1034   76.1220 H   0  0  0  0  0  0  0  0  0  0  0  0
   -1.9373   60.8085   72.8395 H   0  0  0  0  0  0  0  0  0  0  0  0
   -3.8801   61.9026   73.9055 H   0  0  0  0  0  0  0  0  0  0  0  0
   -3.3799   59.4184   77.3764 H   0  0  0  0  0  0  0  0  0  0  0  0
   -1.4350   58.3190   76.3171 H   0  0  0  0  0  0  0  0  0  0  0  0
   -6.0404   60.5215   77.8763 H   0  0  0  0  0  0  0  0  0  0  0  0
   -6.9521   60.9583   76.3914 H   0  0  0  0  0  0  0  0  0  0  0  0
   -5.8692   59.5252   76.3914 H   0  0  0  0  0  0  0  0  0  0  0  0
   -5.4158   63.3638   76.8324 H   0  0  0  0  0  0  0  0  0  0  0  0
   -4.4378   63.1770   75.3373 H   0  0  0  0  0  0  0  0  0  0  0  0
   -6.1748   62.7194   75.3373 H   0  0  0  0  0  0  0  0  0  0  0  0
    3.8787   58.3648   69.3192 H   0  0  0  0  0  0  0  0  0  0  0  0
    2.5350   59.2839   68.5599 H   0  0  0  0  0  0  0  0  0  0  0  0
    4.1988   59.9610   68.5599 H   0  0  0  0  0  0  0  0  0  0  0  0
    2.1677   63.0496   73.3427 H   0  0  0  0  0  0  0  0  0  0  0  0
  2  1  1  0
  3  2  1  0
  4  3  1  0
  5  1  1  0
  5  4  1  0
  5  6  1  1
  7  5  1  0
  8  7  1  0
  9  8  1  0
 10  9  2  0
 11 10  1  0
 12 11  1  0
 13 12  1  0
 14 13  2  0
 15 13  1  0
 16 10  1  0
 16 15  2  0
 17 16  1  0
 18 17  1  0
 19  9  1  0
 19 18  1  0
 19  4  1  0
 20  8  1  0
 21 20  2  0
 22 21  1  0
 23 22  2  0
 24 23  1  0
 25 20  1  0
 25 24  2  0
 26 23  1  0
 27 26  1  0
 28 26  1  0
 30 29  1  0
 31 30  3  0
  1 31  1  6
 32  1  1  0
  2 33  1  0
  2 34  1  0
  3 35  1  0
  3 36  1  0
  4 37  1  6
  6 38  1  0
  6 39  1  0
  6 40  1  0
  7 41  1  0
  7 42  1  0
  8 43  1  6
 11 44  1  0
 11 45  1  0
 12 46  1  0
 12 47  1  0
 15 48  1  0
 17 49  1  0
 17 50  1  0
 18 51  1  0
 18 52  1  0
 19 53  1  1
 21 54  1  0
 22 55  1  0
 24 56  1  0
 25 57  1  0
 27 58  1  0
 27 59  1  0
 27 60  1  0
 28 61  1  0
 28 62  1  0
 28 63  1  0
 29 64  1  0
 29 65  1  0
 29 66  1  0
 32 67  1  0
M  END
>  <score>  (9) 
-6.88

$$$$
