=
     RDKit          3D

 27 28  0  0  0  0  0  0  0  0999 V2000
    3.3570   69.0460   65.1970 N   0  0  0  0  0  0  0  0  0  0  0  0
    2.3200   68.9250   66.0870 C   0  0  0  0  0  0  0  0  0  0  0  0
    1.1650   68.7360   65.4800 N   0  0  0  0  0  0  0  0  0  0  0  0
    1.4850   68.7130   64.1450 C   0  0  0  0  0  0  0  0  0  0  0  0
    2.8360   68.8880   63.9450 C   0  0  0  0  0  0  0  0  0  0  0  0
    3.5150   68.8990   62.7740 N   0  0  0  0  0  0  0  0  0  0  0  0
    2.7470   68.7390   61.7310 C   0  0  0  0  0  0  0  0  0  0  0  0
    3.2880   68.7390   60.4870 N   0  0  0  0  0  0  0  0  0  0  0  0
    1.3780   68.5720   61.7990 N   0  0  0  0  0  0  0  0  0  0  0  0
    0.6490   68.5240   62.9800 C   0  0  0  0  0  0  0  0  0  0  0  0
   -0.5630   68.3360   62.9860 O   0  0  0  0  0  0  0  0  0  0  0  0
    4.7500   69.2310   65.5410 C   0  0  0  0  0  0  0  0  0  0  0  0
    4.8930   70.2970   66.4820 O   0  0  0  0  0  0  0  0  0  0  0  0
    6.2050   70.3790   67.0500 C   0  0  0  0  0  0  0  0  0  0  0  0
    6.1080   71.1870   68.3390 C   0  0  0  0  0  0  0  0  0  0  0  0
    5.7870   72.5420   68.0310 O   0  0  0  0  0  0  0  0  0  0  0  0
    2.4383   68.9793   67.1793 H   0  0  0  0  0  0  0  0  0  0  0  0
    2.6836   68.6129   59.6626 H   0  0  0  0  0  0  0  0  0  0  0  0
    4.3032   68.8651   60.3669 H   0  0  0  0  0  0  0  0  0  0  0  0
    0.8620   68.4764   60.9127 H   0  0  0  0  0  0  0  0  0  0  0  0
    5.1407   68.3025   65.9829 H   0  0  0  0  0  0  0  0  0  0  0  0
    5.3126   69.4815   64.6295 H   0  0  0  0  0  0  0  0  0  0  0  0
    6.5810   69.3688   67.2695 H   0  0  0  0  0  0  0  0  0  0  0  0
    6.8978   70.8628   66.3458 H   0  0  0  0  0  0  0  0  0  0  0  0
    5.3219   70.7611   68.9798 H   0  0  0  0  0  0  0  0  0  0  0  0
    7.0726   71.1508   68.8664 H   0  0  0  0  0  0  0  0  0  0  0  0
    5.6663   73.0517   68.8711 H   0  0  0  0  0  0  0  0  0  0  0  0
  2  1  1  0
  3  2  2  0
  4  3  1  0
  5  4  2  0
  5  1  1  0
  6  5  1  0
  7  6  2  0
  8  7  1  0
  9  7  1  0
 10  9  1  0
 10  4  1  0
 11 10  2  0
 12  1  1  0
 13 12  1  0
 14 13  1  0
 15 14  1  0
 16 15  1  0
  2 17  1  0
  8 18  1  0
  8 19  1  0
  9 20  1  0
 12 21  1  0
 12 22  1  0
 14 23  1  0
 14 24  1  0
 15 25  1  0
 15 26  1  0
 16 27  1  0
M  END
>  <score>  (1) 
-7.734

$$$$
=
     RDKit          3D

 27 28  0  0  0  0  0  0  0  0999 V2000
    4.4760   69.2840   64.6810 N   0  0  0  0  0  0  0  0  0  0  0  0
    5.5550   69.4050   63.8420 C   0  0  0  0  0  0  0  0  0  0  0  0
    5.2240   69.2270   62.5790 N   0  0  0  0  0  0  0  0  0  0  0  0
    3.8690   69.0070   62.6130 C   0  0  0  0  0  0  0  0  0  0  0  0
    3.3810   69.0510   63.9000 C   0  0  0  0  0  0  0  0  0  0  0  0
    2.1020   68.9030   64.3170 N   0  0  0  0  0  0  0  0  0  0  0  0
    1.2650   68.6730   63.3420 C   0  0  0  0  0  0  0  0  0  0  0  0
   -0.0530   68.4920   63.6100 N   0  0  0  0  0  0  0  0  0  0  0  0
    1.6330   68.5880   62.0140 N   0  0  0  0  0  0  0  0  0  0  0  0
    2.9270   68.7630   61.5430 C   0  0  0  0  0  0  0  0  0  0  0  0
    3.1940   68.7140   60.3460 O   0  0  0  0  0  0  0  0  0  0  0  0
    4.4990   69.4500   66.1190 C   0  0  0  0  0  0  0  0  0  0  0  0
    5.2880   70.5870   66.4750 O   0  0  0  0  0  0  0  0  0  0  0  0
    6.3320   70.2810   67.4070 C   0  0  0  0  0  0  0  0  0  0  0  0
    6.2530   71.2900   68.5470 C   0  0  0  0  0  0  0  0  0  0  0  0
    5.7850   72.5410   68.0460 O   0  0  0  0  0  0  0  0  0  0  0  0
    6.5771   69.6249   64.1839 H   0  0  0  0  0  0  0  0  0  0  0  0
   -0.7146   68.3104   62.8417 H   0  0  0  0  0  0  0  0  0  0  0  0
   -0.3918   68.5362   64.5817 H   0  0  0  0  0  0  0  0  0  0  0  0
    0.8962   68.3803   61.3249 H   0  0  0  0  0  0  0  0  0  0  0  0
    3.4713   69.5929   66.4842 H   0  0  0  0  0  0  0  0  0  0  0  0
    4.9400   68.5516   66.5756 H   0  0  0  0  0  0  0  0  0  0  0  0
    6.1960   69.2624   67.7994 H   0  0  0  0  0  0  0  0  0  0  0  0
    7.3139   70.3359   66.9141 H   0  0  0  0  0  0  0  0  0  0  0  0
    5.5585   70.9204   69.3158 H   0  0  0  0  0  0  0  0  0  0  0  0
    7.2521   71.4231   68.9875 H   0  0  0  0  0  0  0  0  0  0  0  0
    5.5619   73.1374   68.8040 H   0  0  0  0  0  0  0  0  0  0  0  0
  2  1  1  0
  3  2  2  0
  4  3  1  0
  5  4  2  0
  5  1  1  0
  6  5  1  0
  7  6  2  0
  8  7  1  0
  9  7  1  0
 10  9  1  0
 10  4  1  0
 11 10  2  0
 12  1  1  0
 13 12  1  0
 14 13  1  0
 15 14  1  0
 16 15  1  0
  2 17  1  0
  8 18  1  0
  8 19  1  0
  9 20  1  0
 12 21  1  0
 12 22  1  0
 14 23  1  0
 14 24  1  0
 15 25  1  0
 15 26  1  0
 16 27  1  0
M  END
>  <score>  (2) 
-7.54

$$$$
=
     RDKit          3D

 27 28  0  0  0  0  0  0  0  0999 V2000
    3.2500   68.0960   62.8490 N   0  0  0  0  0  0  0  0  0  0  0  0
    3.6990   68.4280   61.5950 C   0  0  0  0  0  0  0  0  0  0  0  0
    2.7640   69.0080   60.8710 N   0  0  0  0  0  0  0  0  0  0  0  0
    1.6780   69.0700   61.7080 C   0  0  0  0  0  0  0  0  0  0  0  0
    1.9580   68.5260   62.9420 C   0  0  0  0  0  0  0  0  0  0  0  0
    1.1450   68.4330   64.0210 N   0  0  0  0  0  0  0  0  0  0  0  0
   -0.0490   68.9170   63.8100 C   0  0  0  0  0  0  0  0  0  0  0  0
   -0.9760   68.8820   64.8010 N   0  0  0  0  0  0  0  0  0  0  0  0
   -0.4560   69.4720   62.6140 N   0  0  0  0  0  0  0  0  0  0  0  0
    0.3540   69.6140   61.4960 C   0  0  0  0  0  0  0  0  0  0  0  0
   -0.0470   70.1500   60.4670 O   0  0  0  0  0  0  0  0  0  0  0  0
    4.0360   67.4750   63.8930 C   0  0  0  0  0  0  0  0  0  0  0  0
    4.1560   66.0710   63.6550 O   0  0  0  0  0  0  0  0  0  0  0  0
    3.3700   65.2760   64.5510 C   0  0  0  0  0  0  0  0  0  0  0  0
    3.7890   63.8210   64.3770 C   0  0  0  0  0  0  0  0  0  0  0  0
    4.5330   63.6780   63.1690 O   0  0  0  0  0  0  0  0  0  0  0  0
    4.7204   68.2325   61.2366 H   0  0  0  0  0  0  0  0  0  0  0  0
   -1.9189   69.2630   64.6378 H   0  0  0  0  0  0  0  0  0  0  0  0
   -0.7365   68.4745   65.7161 H   0  0  0  0  0  0  0  0  0  0  0  0
   -1.4287   69.8040   62.5463 H   0  0  0  0  0  0  0  0  0  0  0  0
    5.0386   67.9272   63.9100 H   0  0  0  0  0  0  0  0  0  0  0  0
    3.5351   67.6325   64.8596 H   0  0  0  0  0  0  0  0  0  0  0  0
    3.5489   65.5949   65.5884 H   0  0  0  0  0  0  0  0  0  0  0  0
    2.2991   65.3953   64.3299 H   0  0  0  0  0  0  0  0  0  0  0  0
    4.4133   63.5155   65.2296 H   0  0  0  0  0  0  0  0  0  0  0  0
    2.8921   63.1859   64.3306 H   0  0  0  0  0  0  0  0  0  0  0  0
    5.4817   63.4957   63.3854 H   0  0  0  0  0  0  0  0  0  0  0  0
  2  1  1  0
  3  2  2  0
  4  3  1  0
  5  4  2  0
  5  1  1  0
  6  5  1  0
  7  6  2  0
  8  7  1  0
  9  7  1  0
 10  9  1  0
 10  4  1  0
 11 10  2  0
 12  1  1  0
 13 12  1  0
 14 13  1  0
 15 14  1  0
 16 15  1  0
  2 17  1  0
  8 18  1  0
  8 19  1  0
  9 20  1  0
 12 21  1  0
 12 22  1  0
 14 23  1  0
 14 24  1  0
 15 25  1  0
 15 26  1  0
 16 27  1  0
M  END
>  <score>  (3) 
-7.312

$$$$
=
     RDKit          3D

 27 28  0  0  0  0  0  0  0  0999 V2000
    1.8680   67.8840   64.5790 N   0  0  0  0  0  0  0  0  0  0  0  0
    0.6170   68.1030   65.0960 C   0  0  0  0  0  0  0  0  0  0  0  0
   -0.1720   68.7250   64.2430 N   0  0  0  0  0  0  0  0  0  0  0  0
    0.6060   68.8900   63.1240 C   0  0  0  0  0  0  0  0  0  0  0  0
    1.8670   68.3650   63.3010 C   0  0  0  0  0  0  0  0  0  0  0  0
    2.8890   68.3230   62.4150 N   0  0  0  0  0  0  0  0  0  0  0  0
    2.6020   68.8780   61.2690 C   0  0  0  0  0  0  0  0  0  0  0  0
    3.5350   68.9200   60.2850 N   0  0  0  0  0  0  0  0  0  0  0  0
    1.3820   69.4530   60.9750 N   0  0  0  0  0  0  0  0  0  0  0  0
    0.2990   69.4900   61.8430 C   0  0  0  0  0  0  0  0  0  0  0  0
   -0.7770   69.9810   61.5190 O   0  0  0  0  0  0  0  0  0  0  0  0
    2.9550   67.2020   65.2490 C   0  0  0  0  0  0  0  0  0  0  0  0
    2.5980   65.8440   65.5170 O   0  0  0  0  0  0  0  0  0  0  0  0
    3.0610   64.9300   64.5160 C   0  0  0  0  0  0  0  0  0  0  0  0
    4.3700   65.4740   63.9540 C   0  0  0  0  0  0  0  0  0  0  0  0
    4.2680   65.5920   62.5360 O   0  0  0  0  0  0  0  0  0  0  0  0
    0.3078   67.7952   66.1058 H   0  0  0  0  0  0  0  0  0  0  0  0
    3.3099   69.3577   59.3802 H   0  0  0  0  0  0  0  0  0  0  0  0
    4.4685   68.5142   60.4427 H   0  0  0  0  0  0  0  0  0  0  0  0
    1.2671   69.8847   60.0469 H   0  0  0  0  0  0  0  0  0  0  0  0
    3.8474   67.2226   64.6063 H   0  0  0  0  0  0  0  0  0  0  0  0
    3.1647   67.7116   66.2010 H   0  0  0  0  0  0  0  0  0  0  0  0
    3.2295   63.9394   64.9636 H   0  0  0  0  0  0  0  0  0  0  0  0
    2.3135   64.8276   63.7155 H   0  0  0  0  0  0  0  0  0  0  0  0
    4.5730   66.4632   64.3903 H   0  0  0  0  0  0  0  0  0  0  0  0
    5.1904   64.7859   64.2059 H   0  0  0  0  0  0  0  0  0  0  0  0
    3.6377   66.3212   62.3100 H   0  0  0  0  0  0  0  0  0  0  0  0
  2  1  1  0
  3  2  2  0
  4  3  1  0
  5  4  2  0
  5  1  1  0
  6  5  1  0
  7  6  2  0
  8  7  1  0
  9  7  1  0
 10  9  1  0
 10  4  1  0
 11 10  2  0
 12  1  1  0
 13 12  1  0
 14 13  1  0
 15 14  1  0
 16 15  1  0
  2 17  1  0
  8 18  1  0
  8 19  1  0
  9 20  1  0
 12 21  1  0
 12 22  1  0
 14 23  1  0
 14 24  1  0
 15 25  1  0
 15 26  1  0
 16 27  1  0
M  END
>  <score>  (4) 
-7.31

$$$$
=
     RDKit          3D

 27 28  0  0  0  0  0  0  0  0999 V2000
    1.9630   68.7890   65.5940 N   0  0  0  0  0  0  0  0  0  0  0  0
    2.0920   69.0430   66.9360 C   0  0  0  0  0  0  0  0  0  0  0  0
    3.3200   69.3960   67.2590 N   0  0  0  0  0  0  0  0  0  0  0  0
    3.9980   69.3890   66.0660 C   0  0  0  0  0  0  0  0  0  0  0  0
    3.1770   69.0310   65.0190 C   0  0  0  0  0  0  0  0  0  0  0  0
    3.4880   68.9380   63.7050 N   0  0  0  0  0  0  0  0  0  0  0  0
    4.7380   69.2150   63.4490 C   0  0  0  0  0  0  0  0  0  0  0  0
    5.1970   69.1520   62.1740 N   0  0  0  0  0  0  0  0  0  0  0  0
    5.6620   69.5690   64.4120 N   0  0  0  0  0  0  0  0  0  0  0  0
    5.3770   69.7050   65.7640 C   0  0  0  0  0  0  0  0  0  0  0  0
    6.2280   70.0590   66.5740 O   0  0  0  0  0  0  0  0  0  0  0  0
    0.7420   68.4090   64.9170 C   0  0  0  0  0  0  0  0  0  0  0  0
   -0.1430   67.7460   65.8230 O   0  0  0  0  0  0  0  0  0  0  0  0
   -1.3410   68.4860   66.0860 C   0  0  0  0  0  0  0  0  0  0  0  0
   -2.0600   67.8140   67.2510 C   0  0  0  0  0  0  0  0  0  0  0  0
   -3.4280   68.2170   67.2630 O   0  0  0  0  0  0  0  0  0  0  0  0
    1.2665   68.9615   67.6584 H   0  0  0  0  0  0  0  0  0  0  0  0
    6.1828   69.3702   61.9702 H   0  0  0  0  0  0  0  0  0  0  0  0
    4.5597   68.8860   61.4098 H   0  0  0  0  0  0  0  0  0  0  0  0
    6.6298   69.7443   64.1062 H   0  0  0  0  0  0  0  0  0  0  0  0
    0.2497   69.3106   64.5236 H   0  0  0  0  0  0  0  0  0  0  0  0
    0.9888   67.7238   64.0927 H   0  0  0  0  0  0  0  0  0  0  0  0
   -1.0891   69.5236   66.3506 H   0  0  0  0  0  0  0  0  0  0  0  0
   -1.9857   68.5012   65.1949 H   0  0  0  0  0  0  0  0  0  0  0  0
   -2.0008   66.7215   67.1371 H   0  0  0  0  0  0  0  0  0  0  0  0
   -1.5825   68.1111   68.1964 H   0  0  0  0  0  0  0  0  0  0  0  0
   -3.7370   68.3080   68.1991 H   0  0  0  0  0  0  0  0  0  0  0  0
  2  1  1  0
  3  2  2  0
  4  3  1  0
  5  4  2  0
  5  1  1  0
  6  5  1  0
  7  6  2  0
  8  7  1  0
  9  7  1  0
 10  9  1  0
 10  4  1  0
 11 10  2  0
 12  1  1  0
 13 12  1  0
 14 13  1  0
 15 14  1  0
 16 15  1  0
  2 17  1  0
  8 18  1  0
  8 19  1  0
  9 20  1  0
 12 21  1  0
 12 22  1  0
 14 23  1  0
 14 24  1  0
 15 25  1  0
 15 26  1  0
 16 27  1  0
M  END
>  <score>  (5) 
-7.143

$$$$
=
     RDKit          3D

 27 28  0  0  0  0  0  0  0  0999 V2000
    3.2610   69.0680   65.0430 N   0  0  0  0  0  0  0  0  0  0  0  0
    4.3620   69.0560   64.2240 C   0  0  0  0  0  0  0  0  0  0  0  0
    5.4450   69.4820   64.8420 N   0  0  0  0  0  0  0  0  0  0  0  0
    5.0200   69.7550   66.1190 C   0  0  0  0  0  0  0  0  0  0  0  0
    3.6770   69.4930   66.2710 C   0  0  0  0  0  0  0  0  0  0  0  0
    2.9190   69.6200   67.3870 N   0  0  0  0  0  0  0  0  0  0  0  0
    3.5870   70.0680   68.4150 C   0  0  0  0  0  0  0  0  0  0  0  0
    2.9550   70.2560   69.6010 N   0  0  0  0  0  0  0  0  0  0  0  0
    4.9310   70.3830   68.3850 N   0  0  0  0  0  0  0  0  0  0  0  0
    5.7480   70.2380   67.2720 C   0  0  0  0  0  0  0  0  0  0  0  0
    6.9470   70.4980   67.3080 O   0  0  0  0  0  0  0  0  0  0  0  0
    1.9300   68.6350   64.6770 C   0  0  0  0  0  0  0  0  0  0  0  0
    1.6770   68.9140   63.2990 O   0  0  0  0  0  0  0  0  0  0  0  0
    0.3170   69.2760   63.0360 C   0  0  0  0  0  0  0  0  0  0  0  0
    0.2260   69.7380   61.5850 C   0  0  0  0  0  0  0  0  0  0  0  0
    1.3940   69.3240   60.8780 O   0  0  0  0  0  0  0  0  0  0  0  0
    4.3427   68.7289   63.1739 H   0  0  0  0  0  0  0  0  0  0  0  0
    3.4797   70.6094   70.4138 H   0  0  0  0  0  0  0  0  0  0  0  0
    1.9506   70.0453   69.6884 H   0  0  0  0  0  0  0  0  0  0  0  0
    5.3567   70.7509   69.2477 H   0  0  0  0  0  0  0  0  0  0  0  0
    1.8407   67.5524   64.8500 H   0  0  0  0  0  0  0  0  0  0  0  0
    1.1966   69.1777   65.2915 H   0  0  0  0  0  0  0  0  0  0  0  0
   -0.3381   68.4064   63.1930 H   0  0  0  0  0  0  0  0  0  0  0  0
   -0.0031   70.0804   63.7146 H   0  0  0  0  0  0  0  0  0  0  0  0
   -0.6637   69.2941   61.1144 H   0  0  0  0  0  0  0  0  0  0  0  0
    0.1494   70.8349   61.5544 H   0  0  0  0  0  0  0  0  0  0  0  0
    2.1001   69.0737   61.5252 H   0  0  0  0  0  0  0  0  0  0  0  0
  2  1  1  0
  3  2  2  0
  4  3  1  0
  5  4  2  0
  5  1  1  0
  6  5  1  0
  7  6  2  0
  8  7  1  0
  9  7  1  0
 10  9  1  0
 10  4  1  0
 11 10  2  0
 12  1  1  0
 13 12  1  0
 14 13  1  0
 15 14  1  0
 16 15  1  0
  2 17  1  0
  8 18  1  0
  8 19  1  0
  9 20  1  0
 12 21  1  0
 12 22  1  0
 14 23  1  0
 14 24  1  0
 15 25  1  0
 15 26  1  0
 16 27  1  0
M  END
>  <score>  (6) 
-7.078

$$$$
=
     RDKit          3D

 27 28  0  0  0  0  0  0  0  0999 V2000
    1.5950   67.7560   64.7550 N   0  0  0  0  0  0  0  0  0  0  0  0
    1.8540   68.7950   63.8980 C   0  0  0  0  0  0  0  0  0  0  0  0
    2.8760   68.5410   63.1050 N   0  0  0  0  0  0  0  0  0  0  0  0
    3.2700   67.2740   63.4580 C   0  0  0  0  0  0  0  0  0  0  0  0
    2.4850   66.7620   64.4660 C   0  0  0  0  0  0  0  0  0  0  0  0
    2.5610   65.5430   65.0500 N   0  0  0  0  0  0  0  0  0  0  0  0
    3.5270   64.8030   64.5780 C   0  0  0  0  0  0  0  0  0  0  0  0
    3.7310   63.5580   65.0760 N   0  0  0  0  0  0  0  0  0  0  0  0
    4.3920   65.2090   63.5810 N   0  0  0  0  0  0  0  0  0  0  0  0
    4.3280   66.4370   62.9360 C   0  0  0  0  0  0  0  0  0  0  0  0
    5.0990   66.7340   62.0290 O   0  0  0  0  0  0  0  0  0  0  0  0
    0.5260   67.7080   65.7290 C   0  0  0  0  0  0  0  0  0  0  0  0
   -0.6480   68.3380   65.2100 O   0  0  0  0  0  0  0  0  0  0  0  0
   -1.4150   69.0170   66.2110 C   0  0  0  0  0  0  0  0  0  0  0  0
   -1.9080   67.9760   67.2100 C   0  0  0  0  0  0  0  0  0  0  0  0
   -3.3280   68.0560   67.3220 O   0  0  0  0  0  0  0  0  0  0  0  0
    1.2764   69.7309   63.8750 H   0  0  0  0  0  0  0  0  0  0  0  0
    4.4930   62.9731   64.7043 H   0  0  0  0  0  0  0  0  0  0  0  0
    3.1239   63.1974   65.8259 H   0  0  0  0  0  0  0  0  0  0  0  0
    5.1359   64.5559   63.2962 H   0  0  0  0  0  0  0  0  0  0  0  0
    0.2992   66.6583   65.9672 H   0  0  0  0  0  0  0  0  0  0  0  0
    0.8456   68.2403   66.6370 H   0  0  0  0  0  0  0  0  0  0  0  0
   -0.7859   69.7591   66.7244 H   0  0  0  0  0  0  0  0  0  0  0  0
   -2.2664   69.5406   65.7517 H   0  0  0  0  0  0  0  0  0  0  0  0
   -1.6241   66.9717   66.8625 H   0  0  0  0  0  0  0  0  0  0  0  0
   -1.4524   68.1678   68.1927 H   0  0  0  0  0  0  0  0  0  0  0  0
   -3.5833   68.0704   68.2784 H   0  0  0  0  0  0  0  0  0  0  0  0
  2  1  1  0
  3  2  2  0
  4  3  1  0
  5  4  2  0
  5  1  1  0
  6  5  1  0
  7  6  2  0
  8  7  1  0
  9  7  1  0
 10  9  1  0
 10  4  1  0
 11 10  2  0
 12  1  1  0
 13 12  1  0
 14 13  1  0
 15 14  1  0
 16 15  1  0
  2 17  1  0
  8 18  1  0
  8 19  1  0
  9 20  1  0
 12 21  1  0
 12 22  1  0
 14 23  1  0
 14 24  1  0
 15 25  1  0
 15 26  1  0
 16 27  1  0
M  END
>  <score>  (7) 
-7.047

$$$$
=
     RDKit          3D

 27 28  0  0  0  0  0  0  0  0999 V2000
    2.4710   68.1670   64.9520 N   0  0  0  0  0  0  0  0  0  0  0  0
    1.6430   67.1350   64.5880 C   0  0  0  0  0  0  0  0  0  0  0  0
    0.9240   66.6940   65.6010 N   0  0  0  0  0  0  0  0  0  0  0  0
    1.2950   67.4960   66.6510 C   0  0  0  0  0  0  0  0  0  0  0  0
    2.2380   68.4240   66.2720 C   0  0  0  0  0  0  0  0  0  0  0  0
    2.8170   69.3880   67.0270 N   0  0  0  0  0  0  0  0  0  0  0  0
    2.4090   69.3850   68.2680 C   0  0  0  0  0  0  0  0  0  0  0  0
    2.9110   70.2900   69.1450 N   0  0  0  0  0  0  0  0  0  0  0  0
    1.4820   68.4960   68.7730 N   0  0  0  0  0  0  0  0  0  0  0  0
    0.8440   67.5150   68.0260 C   0  0  0  0  0  0  0  0  0  0  0  0
   -0.0010   66.7730   68.5170 O   0  0  0  0  0  0  0  0  0  0  0  0
    3.3630   68.8880   64.0700 C   0  0  0  0  0  0  0  0  0  0  0  0
    4.4300   68.0400   63.6410 O   0  0  0  0  0  0  0  0  0  0  0  0
    4.3810   67.7330   62.2430 C   0  0  0  0  0  0  0  0  0  0  0  0
    3.2660   68.5650   61.6190 C   0  0  0  0  0  0  0  0  0  0  0  0
    3.7500   69.2050   60.4400 O   0  0  0  0  0  0  0  0  0  0  0  0
    1.5859   66.7236   63.5694 H   0  0  0  0  0  0  0  0  0  0  0  0
    2.5914   70.2903   70.1242 H   0  0  0  0  0  0  0  0  0  0  0  0
    3.6117   70.9768   68.8317 H   0  0  0  0  0  0  0  0  0  0  0  0
    1.2472   68.5651   69.7735 H   0  0  0  0  0  0  0  0  0  0  0  0
    2.8007   69.2363   63.1911 H   0  0  0  0  0  0  0  0  0  0  0  0
    3.7850   69.7468   64.6125 H   0  0  0  0  0  0  0  0  0  0  0  0
    5.3428   67.9834   61.7715 H   0  0  0  0  0  0  0  0  0  0  0  0
    4.1885   66.6604   62.0929 H   0  0  0  0  0  0  0  0  0  0  0  0
    2.4215   67.9097   61.3595 H   0  0  0  0  0  0  0  0  0  0  0  0
    2.9326   69.3275   62.3383 H   0  0  0  0  0  0  0  0  0  0  0  0
    4.3274   69.9685   60.6923 H   0  0  0  0  0  0  0  0  0  0  0  0
  2  1  1  0
  3  2  2  0
  4  3  1  0
  5  4  2  0
  5  1  1  0
  6  5  1  0
  7  6  2  0
  8  7  1  0
  9  7  1  0
 10  9  1  0
 10  4  1  0
 11 10  2  0
 12  1  1  0
 13 12  1  0
 14 13  1  0
 15 14  1  0
 16 15  1  0
  2 17  1  0
  8 18  1  0
  8 19  1  0
  9 20  1  0
 12 21  1  0
 12 22  1  0
 14 23  1  0
 14 24  1  0
 15 25  1  0
 15 26  1  0
 16 27  1  0
M  END
>  <score>  (8) 
-6.909

$$$$
=
     RDKit          3D

 27 28  0  0  0  0  0  0  0  0999 V2000
    2.6490   68.8830   65.6980 N   0  0  0  0  0  0  0  0  0  0  0  0
    1.5060   68.8850   66.4560 C   0  0  0  0  0  0  0  0  0  0  0  0
    1.7100   69.3790   67.6610 N   0  0  0  0  0  0  0  0  0  0  0  0
    3.0380   69.7280   67.6620 C   0  0  0  0  0  0  0  0  0  0  0  0
    3.6370   69.4440   66.4550 C   0  0  0  0  0  0  0  0  0  0  0  0
    4.9190   69.6690   66.0820 N   0  0  0  0  0  0  0  0  0  0  0  0
    5.6440   70.2070   67.0250 C   0  0  0  0  0  0  0  0  0  0  0  0
    6.9530   70.4800   66.7980 N   0  0  0  0  0  0  0  0  0  0  0  0
    5.1650   70.5220   68.2810 N   0  0  0  0  0  0  0  0  0  0  0  0
    3.8520   70.3360   68.6920 C   0  0  0  0  0  0  0  0  0  0  0  0
    3.4680   70.6680   69.8090 O   0  0  0  0  0  0  0  0  0  0  0  0
    2.7550   68.4340   64.3260 C   0  0  0  0  0  0  0  0  0  0  0  0
    3.1800   67.0700   64.2810 O   0  0  0  0  0  0  0  0  0  0  0  0
    4.4720   66.9000   63.6870 C   0  0  0  0  0  0  0  0  0  0  0  0
    4.5790   67.8680   62.5140 C   0  0  0  0  0  0  0  0  0  0  0  0
    4.1320   67.2260   61.3220 O   0  0  0  0  0  0  0  0  0  0  0  0
    0.5324   68.5172   66.0999 H   0  0  0  0  0  0  0  0  0  0  0  0
    7.5269   70.9045   67.5406 H   0  0  0  0  0  0  0  0  0  0  0  0
    7.3732   70.2629   65.8830 H   0  0  0  0  0  0  0  0  0  0  0  0
    5.8277   70.9227   68.9601 H   0  0  0  0  0  0  0  0  0  0  0  0
    1.7734   68.5243   63.8379 H   0  0  0  0  0  0  0  0  0  0  0  0
    3.4954   69.0566   63.8023 H   0  0  0  0  0  0  0  0  0  0  0  0
    5.2555   67.1210   64.4267 H   0  0  0  0  0  0  0  0  0  0  0  0
    4.6019   65.8637   63.3419 H   0  0  0  0  0  0  0  0  0  0  0  0
    3.9540   68.7517   62.7104 H   0  0  0  0  0  0  0  0  0  0  0  0
    5.6271   68.1784   62.3908 H   0  0  0  0  0  0  0  0  0  0  0  0
    3.5827   66.4370   61.5582 H   0  0  0  0  0  0  0  0  0  0  0  0
  2  1  1  0
  3  2  2  0
  4  3  1  0
  5  4  2  0
  5  1  1  0
  6  5  1  0
  7  6  2  0
  8  7  1  0
  9  7  1  0
 10  9  1  0
 10  4  1  0
 11 10  2  0
 12  1  1  0
 13 12  1  0
 14 13  1  0
 15 14  1  0
 16 15  1  0
  2 17  1  0
  8 18  1  0
  8 19  1  0
  9 20  1  0
 12 21  1  0
 12 22  1  0
 14 23  1  0
 14 24  1  0
 15 25  1  0
 15 26  1  0
 16 27  1  0
M  END
>  <score>  (9) 
-6.823

$$$$
