=
     RDKit          3D

 33 36  0  0  0  0  0  0  0  0999 V2000
    3.7490   68.5240   64.8720 O   0  0  0  0  0  0  0  0  0  0  0  0
    2.9950   68.8130   65.7920 C   0  0  0  0  0  0  0  0  0  0  0  0
    1.5750   68.4330   65.6680 C   0  0  0  0  0  0  0  0  0  0  0  0
    0.7070   68.7260   66.6430 C   0  0  0  0  0  0  0  0  0  0  0  0
    1.0870   69.3890   67.7990 O   0  0  0  0  0  0  0  0  0  0  0  0
    2.3960   69.7670   67.9630 C   0  0  0  0  0  0  0  0  0  0  0  0
    3.4080   69.5250   67.0280 C   0  0  0  0  0  0  0  0  0  0  0  0
    4.7470   69.9560   67.2850 C   0  0  0  0  0  0  0  0  0  0  0  0
    5.8590   69.7740   66.4210 C   0  0  0  0  0  0  0  0  0  0  0  0
    7.1420   70.2240   66.7470 C   0  0  0  0  0  0  0  0  0  0  0  0
    7.3630   70.8770   67.9490 C   0  0  0  0  0  0  0  0  0  0  0  0
    6.2990   71.0760   68.8250 C   0  0  0  0  0  0  0  0  0  0  0  0
    5.0050   70.6280   68.5110 C   0  0  0  0  0  0  0  0  0  0  0  0
    3.9680   70.8530   69.4270 C   0  0  0  0  0  0  0  0  0  0  0  0
    2.6740   70.4260   69.1560 C   0  0  0  0  0  0  0  0  0  0  0  0
   -0.7420   68.3750   66.5930 C   0  0  0  0  0  0  0  0  0  0  0  0
   -1.2390   67.3170   67.3790 C   0  0  0  0  0  0  0  0  0  0  0  0
   -2.5920   66.9600   67.3590 C   0  0  0  0  0  0  0  0  0  0  0  0
   -3.4830   67.6530   66.5480 C   0  0  0  0  0  0  0  0  0  0  0  0
   -3.0210   68.7010   65.7610 C   0  0  0  0  0  0  0  0  0  0  0  0
   -1.6660   69.0570   65.7830 C   0  0  0  0  0  0  0  0  0  0  0  0
    1.2274   67.9051   64.7677 H   0  0  0  0  0  0  0  0  0  0  0  0
    5.7055   69.2604   65.4605 H   0  0  0  0  0  0  0  0  0  0  0  0
    7.9762   70.0596   66.0491 H   0  0  0  0  0  0  0  0  0  0  0  0
    8.3701   71.2350   68.2089 H   0  0  0  0  0  0  0  0  0  0  0  0
    6.4748   71.5932   69.7798 H   0  0  0  0  0  0  0  0  0  0  0  0
    4.1814   71.3740   70.3720 H   0  0  0  0  0  0  0  0  0  0  0  0
    1.8701   70.6089   69.8842 H   0  0  0  0  0  0  0  0  0  0  0  0
   -0.5463   66.7574   68.0247 H   0  0  0  0  0  0  0  0  0  0  0  0
   -2.9507   66.1302   67.9857 H   0  0  0  0  0  0  0  0  0  0  0  0
   -4.5468   67.3737   66.5292 H   0  0  0  0  0  0  0  0  0  0  0  0
   -3.7220   69.2534   65.1180 H   0  0  0  0  0  0  0  0  0  0  0  0
   -1.3179   69.8884   65.1525 H   0  0  0  0  0  0  0  0  0  0  0  0
  2  1  2  0
  3  2  1  0
  4  3  2  0
  5  4  1  0
  6  5  1  0
  7  6  2  0
  7  2  1  0
  8  7  1  0
  9  8  2  0
 10  9  1  0
 11 10  2  0
 12 11  1  0
 13  8  1  0
 13 12  2  0
 14 13  1  0
 15  6  1  0
 15 14  2  0
 16  4  1  0
 17 16  2  0
 18 17  1  0
 19 18  2  0
 20 19  1  0
 21 20  2  0
 21 16  1  0
  3 22  1  0
  9 23  1  0
 10 24  1  0
 11 25  1  0
 12 26  1  0
 14 27  1  0
 15 28  1  0
 17 29  1  0
 18 30  1  0
 19 31  1  0
 20 32  1  0
 21 33  1  0
M  END
>  <score>  (1) 
-11.052

$$$$
=
     RDKit          3D

 33 36  0  0  0  0  0  0  0  0999 V2000
    2.7840   70.5820   69.7140 O   0  0  0  0  0  0  0  0  0  0  0  0
    2.5120   70.0540   68.6440 C   0  0  0  0  0  0  0  0  0  0  0  0
    1.1190   69.6260   68.4180 C   0  0  0  0  0  0  0  0  0  0  0  0
    0.7670   69.0420   67.2660 C   0  0  0  0  0  0  0  0  0  0  0  0
    1.6740   68.8120   66.2450 O   0  0  0  0  0  0  0  0  0  0  0  0
    2.9840   69.1900   66.4050 C   0  0  0  0  0  0  0  0  0  0  0  0
    3.4890   69.8090   67.5530 C   0  0  0  0  0  0  0  0  0  0  0  0
    4.8720   70.1690   67.6310 C   0  0  0  0  0  0  0  0  0  0  0  0
    5.5060   70.7980   68.7340 C   0  0  0  0  0  0  0  0  0  0  0  0
    6.8660   71.1190   68.7330 C   0  0  0  0  0  0  0  0  0  0  0  0
    7.6470   70.8220   67.6270 C   0  0  0  0  0  0  0  0  0  0  0  0
    7.0650   70.2040   66.5230 C   0  0  0  0  0  0  0  0  0  0  0  0
    5.6980   69.8770   66.5110 C   0  0  0  0  0  0  0  0  0  0  0  0
    5.1590   69.2560   65.3760 C   0  0  0  0  0  0  0  0  0  0  0  0
    3.8130   68.9150   65.3220 C   0  0  0  0  0  0  0  0  0  0  0  0
   -0.6190   68.5820   66.9610 C   0  0  0  0  0  0  0  0  0  0  0  0
   -1.1300   67.4250   67.5820 C   0  0  0  0  0  0  0  0  0  0  0  0
   -2.4250   66.9640   67.3210 C   0  0  0  0  0  0  0  0  0  0  0  0
   -3.2420   67.6490   66.4300 C   0  0  0  0  0  0  0  0  0  0  0  0
   -2.7650   68.7930   65.8020 C   0  0  0  0  0  0  0  0  0  0  0  0
   -1.4680   69.2530   66.0640 C   0  0  0  0  0  0  0  0  0  0  0  0
    0.3640   69.7877   69.2014 H   0  0  0  0  0  0  0  0  0  0  0  0
    4.9047   71.0418   69.6223 H   0  0  0  0  0  0  0  0  0  0  0  0
    7.3167   71.6072   69.6096 H   0  0  0  0  0  0  0  0  0  0  0  0
    8.7181   71.0725   67.6214 H   0  0  0  0  0  0  0  0  0  0  0  0
    7.6854   69.9679   65.6458 H   0  0  0  0  0  0  0  0  0  0  0  0
    5.8098   69.0357   64.5170 H   0  0  0  0  0  0  0  0  0  0  0  0
    3.4036   68.4284   64.4244 H   0  0  0  0  0  0  0  0  0  0  0  0
   -0.4954   66.8707   68.2892 H   0  0  0  0  0  0  0  0  0  0  0  0
   -2.7968   66.0580   67.8219 H   0  0  0  0  0  0  0  0  0  0  0  0
   -4.2602   67.2878   66.2230 H   0  0  0  0  0  0  0  0  0  0  0  0
   -3.4082   69.3395   65.0965 H   0  0  0  0  0  0  0  0  0  0  0  0
   -1.1060   70.1593   65.5565 H   0  0  0  0  0  0  0  0  0  0  0  0
  2  1  2  0
  3  2  1  0
  4  3  2  0
  5  4  1  0
  6  5  1  0
  7  6  2  0
  7  2  1  0
  8  7  1  0
  9  8  2  0
 10  9  1  0
 11 10  2  0
 12 11  1  0
 13  8  1  0
 13 12  2  0
 14 13  1  0
 15  6  1  0
 15 14  2  0
 16  4  1  0
 17 16  2  0
 18 17  1  0
 19 18  2  0
 20 19  1  0
 21 20  2  0
 21 16  1  0
  3 22  1  0
  9 23  1  0
 10 24  1  0
 11 25  1  0
 12 26  1  0
 14 27  1  0
 15 28  1  0
 17 29  1  0
 18 30  1  0
 19 31  1  0
 20 32  1  0
 21 33  1  0
M  END
>  <score>  (2) 
-10.358

$$$$
=
     RDKit          3D

 33 36  0  0  0  0  0  0  0  0999 V2000
   -0.2120   64.4200   72.9430 O   0  0  0  0  0  0  0  0  0  0  0  0
    0.4440   64.5920   71.9240 C   0  0  0  0  0  0  0  0  0  0  0  0
   -0.0060   65.6300   70.9790 C   0  0  0  0  0  0  0  0  0  0  0  0
    0.6750   65.8600   69.8490 C   0  0  0  0  0  0  0  0  0  0  0  0
    1.8150   65.1490   69.5140 O   0  0  0  0  0  0  0  0  0  0  0  0
    2.2760   64.1710   70.3590 C   0  0  0  0  0  0  0  0  0  0  0  0
    1.6660   63.8260   71.5700 C   0  0  0  0  0  0  0  0  0  0  0  0
    2.2180   62.7910   72.3880 C   0  0  0  0  0  0  0  0  0  0  0  0
    1.6980   62.3480   73.6320 C   0  0  0  0  0  0  0  0  0  0  0  0
    2.2990   61.3270   74.3750 C   0  0  0  0  0  0  0  0  0  0  0  0
    3.4440   60.7080   73.9010 C   0  0  0  0  0  0  0  0  0  0  0  0
    3.9880   61.1120   72.6850 C   0  0  0  0  0  0  0  0  0  0  0  0
    3.3950   62.1370   71.9290 C   0  0  0  0  0  0  0  0  0  0  0  0
    3.9800   62.5080   70.7100 C   0  0  0  0  0  0  0  0  0  0  0  0
    3.4270   63.5160   69.9310 C   0  0  0  0  0  0  0  0  0  0  0  0
    0.2840   66.8910   68.8430 C   0  0  0  0  0  0  0  0  0  0  0  0
   -0.9880   66.8420   68.2410 C   0  0  0  0  0  0  0  0  0  0  0  0
   -1.3890   67.7910   67.2950 C   0  0  0  0  0  0  0  0  0  0  0  0
   -0.5240   68.8140   66.9250 C   0  0  0  0  0  0  0  0  0  0  0  0
    0.7380   68.8870   67.5020 C   0  0  0  0  0  0  0  0  0  0  0  0
    1.1380   67.9360   68.4500 C   0  0  0  0  0  0  0  0  0  0  0  0
   -0.9071   66.2196   71.2035 H   0  0  0  0  0  0  0  0  0  0  0  0
    0.7888   62.8253   74.0263 H   0  0  0  0  0  0  0  0  0  0  0  0
    1.8626   61.0155   75.3355 H   0  0  0  0  0  0  0  0  0  0  0  0
    3.9197   59.9034   74.4810 H   0  0  0  0  0  0  0  0  0  0  0  0
    4.8976   60.6204   72.3097 H   0  0  0  0  0  0  0  0  0  0  0  0
    4.8894   61.9936   70.3659 H   0  0  0  0  0  0  0  0  0  0  0  0
    3.8979   63.7963   68.9772 H   0  0  0  0  0  0  0  0  0  0  0  0
   -1.6836   66.0374   68.5217 H   0  0  0  0  0  0  0  0  0  0  0  0
   -2.3900   67.7276   66.8434 H   0  0  0  0  0  0  0  0  0  0  0  0
   -0.8363   69.5609   66.1803 H   0  0  0  0  0  0  0  0  0  0  0  0
    1.4261   69.6951   67.2132 H   0  0  0  0  0  0  0  0  0  0  0  0
    2.1410   68.0087   68.8959 H   0  0  0  0  0  0  0  0  0  0  0  0
  2  1  2  0
  3  2  1  0
  4  3  2  0
  5  4  1  0
  6  5  1  0
  7  6  2  0
  7  2  1  0
  8  7  1  0
  9  8  2  0
 10  9  1  0
 11 10  2  0
 12 11  1  0
 13  8  1  0
 13 12  2  0
 14 13  1  0
 15  6  1  0
 15 14  2  0
 16  4  1  0
 17 16  2  0
 18 17  1  0
 19 18  2  0
 20 19  1  0
 21 20  2  0
 21 16  1  0
  3 22  1  0
  9 23  1  0
 10 24  1  0
 11 25  1  0
 12 26  1  0
 14 27  1  0
 15 28  1  0
 17 29  1  0
 18 30  1  0
 19 31  1  0
 20 32  1  0
 21 33  1  0
M  END
>  <score>  (3) 
-9.765

$$$$
=
     RDKit          3D

 33 36  0  0  0  0  0  0  0  0999 V2000
    4.9820   69.5610   63.6320 O   0  0  0  0  0  0  0  0  0  0  0  0
    4.5600   69.5850   64.7810 C   0  0  0  0  0  0  0  0  0  0  0  0
    5.5090   69.9110   65.8610 C   0  0  0  0  0  0  0  0  0  0  0  0
    5.1010   69.9510   67.1350 C   0  0  0  0  0  0  0  0  0  0  0  0
    3.7900   69.6930   67.5010 O   0  0  0  0  0  0  0  0  0  0  0  0
    2.8660   69.3830   66.5340 C   0  0  0  0  0  0  0  0  0  0  0  0
    3.1530   69.3070   65.1670 C   0  0  0  0  0  0  0  0  0  0  0  0
    2.1240   68.9760   64.2300 C   0  0  0  0  0  0  0  0  0  0  0  0
    2.2840   68.8670   62.8230 C   0  0  0  0  0  0  0  0  0  0  0  0
    1.2250   68.5400   61.9720 C   0  0  0  0  0  0  0  0  0  0  0  0
   -0.0380   68.3080   62.4950 C   0  0  0  0  0  0  0  0  0  0  0  0
   -0.2380   68.4050   63.8690 C   0  0  0  0  0  0  0  0  0  0  0  0
    0.8170   68.7340   64.7360 C   0  0  0  0  0  0  0  0  0  0  0  0
    0.5640   68.8190   66.1120 C   0  0  0  0  0  0  0  0  0  0  0  0
    1.5790   69.1410   67.0050 C   0  0  0  0  0  0  0  0  0  0  0  0
    5.9990   70.2720   68.2820 C   0  0  0  0  0  0  0  0  0  0  0  0
    7.3340   70.6540   68.0460 C   0  0  0  0  0  0  0  0  0  0  0  0
    8.2050   70.9630   69.0970 C   0  0  0  0  0  0  0  0  0  0  0  0
    7.7620   70.8960   70.4120 C   0  0  0  0  0  0  0  0  0  0  0  0
    6.4490   70.5220   70.6750 C   0  0  0  0  0  0  0  0  0  0  0  0
    5.5780   70.2130   69.6220 C   0  0  0  0  0  0  0  0  0  0  0  0
    6.5606   70.1230   65.6178 H   0  0  0  0  0  0  0  0  0  0  0  0
    3.2779   69.0466   62.3872 H   0  0  0  0  0  0  0  0  0  0  0  0
    1.3933   68.4667   60.8874 H   0  0  0  0  0  0  0  0  0  0  0  0
   -0.8749   68.0495   61.8296 H   0  0  0  0  0  0  0  0  0  0  0  0
   -1.2402   68.2207   64.2833 H   0  0  0  0  0  0  0  0  0  0  0  0
   -0.4513   68.6283   66.4900 H   0  0  0  0  0  0  0  0  0  0  0  0
    1.3655   69.2045   68.0822 H   0  0  0  0  0  0  0  0  0  0  0  0
    7.7009   70.7108   67.0106 H   0  0  0  0  0  0  0  0  0  0  0  0
    9.2421   71.2594   68.8815 H   0  0  0  0  0  0  0  0  0  0  0  0
    8.4454   71.1372   71.2395 H   0  0  0  0  0  0  0  0  0  0  0  0
    6.0925   70.4685   71.7143 H   0  0  0  0  0  0  0  0  0  0  0  0
    4.5428   69.9180   69.8486 H   0  0  0  0  0  0  0  0  0  0  0  0
  2  1  2  0
  3  2  1  0
  4  3  2  0
  5  4  1  0
  6  5  1  0
  7  6  2  0
  7  2  1  0
  8  7  1  0
  9  8  2  0
 10  9  1  0
 11 10  2  0
 12 11  1  0
 13  8  1  0
 13 12  2  0
 14 13  1  0
 15  6  1  0
 15 14  2  0
 16  4  1  0
 17 16  2  0
 18 17  1  0
 19 18  2  0
 20 19  1  0
 21 20  2  0
 21 16  1  0
  3 22  1  0
  9 23  1  0
 10 24  1  0
 11 25  1  0
 12 26  1  0
 14 27  1  0
 15 28  1  0
 17 29  1  0
 18 30  1  0
 19 31  1  0
 20 32  1  0
 21 33  1  0
M  END
>  <score>  (4) 
-9.396

$$$$
=
     RDKit          3D

 33 36  0  0  0  0  0  0  0  0999 V2000
    3.9670   58.5550   70.1790 O   0  0  0  0  0  0  0  0  0  0  0  0
    3.1190   58.6410   71.0570 C   0  0  0  0  0  0  0  0  0  0  0  0
    2.6640   57.3970   71.7050 C   0  0  0  0  0  0  0  0  0  0  0  0
    1.7380   57.4350   72.6710 C   0  0  0  0  0  0  0  0  0  0  0  0
    1.1690   58.6200   73.1060 O   0  0  0  0  0  0  0  0  0  0  0  0
    1.5570   59.8070   72.5350 C   0  0  0  0  0  0  0  0  0  0  0  0
    2.5120   59.9160   71.5190 C   0  0  0  0  0  0  0  0  0  0  0  0
    2.8540   61.1970   70.9830 C   0  0  0  0  0  0  0  0  0  0  0  0
    3.8020   61.4420   69.9550 C   0  0  0  0  0  0  0  0  0  0  0  0
    4.0820   62.7290   69.4850 C   0  0  0  0  0  0  0  0  0  0  0  0
    3.4220   63.8220   70.0250 C   0  0  0  0  0  0  0  0  0  0  0  0
    2.4850   63.6260   71.0360 C   0  0  0  0  0  0  0  0  0  0  0  0
    2.1950   62.3380   71.5170 C   0  0  0  0  0  0  0  0  0  0  0  0
    1.2430   62.1930   72.5360 C   0  0  0  0  0  0  0  0  0  0  0  0
    0.9250   60.9380   73.0420 C   0  0  0  0  0  0  0  0  0  0  0  0
    1.2270   56.2220   73.3740 C   0  0  0  0  0  0  0  0  0  0  0  0
   -0.1400   56.1220   73.7020 C   0  0  0  0  0  0  0  0  0  0  0  0
   -0.6550   55.0000   74.3610 C   0  0  0  0  0  0  0  0  0  0  0  0
    0.1850   53.9500   74.7100 C   0  0  0  0  0  0  0  0  0  0  0  0
    1.5380   54.0210   74.4000 C   0  0  0  0  0  0  0  0  0  0  0  0
    2.0530   55.1450   73.7400 C   0  0  0  0  0  0  0  0  0  0  0  0
    3.0883   56.4314   71.3926 H   0  0  0  0  0  0  0  0  0  0  0  0
    4.3358   60.5883   69.5120 H   0  0  0  0  0  0  0  0  0  0  0  0
    4.8255   62.8740   68.6873 H   0  0  0  0  0  0  0  0  0  0  0  0
    3.6369   64.8363   69.6576 H   0  0  0  0  0  0  0  0  0  0  0  0
    1.9631   64.4939   71.4653 H   0  0  0  0  0  0  0  0  0  0  0  0
    0.7410   63.0843   72.9405 H   0  0  0  0  0  0  0  0  0  0  0  0
    0.1756   60.8393   73.8412 H   0  0  0  0  0  0  0  0  0  0  0  0
   -0.8182   56.9454   73.4336 H   0  0  0  0  0  0  0  0  0  0  0  0
   -1.7268   54.9494   74.6031 H   0  0  0  0  0  0  0  0  0  0  0  0
   -0.2183   53.0677   75.2286 H   0  0  0  0  0  0  0  0  0  0  0  0
    2.2071   53.1919   74.6737 H   0  0  0  0  0  0  0  0  0  0  0  0
    3.1265   55.1853   73.5033 H   0  0  0  0  0  0  0  0  0  0  0  0
  2  1  2  0
  3  2  1  0
  4  3  2  0
  5  4  1  0
  6  5  1  0
  7  6  2  0
  7  2  1  0
  8  7  1  0
  9  8  2  0
 10  9  1  0
 11 10  2  0
 12 11  1  0
 13  8  1  0
 13 12  2  0
 14 13  1  0
 15  6  1  0
 15 14  2  0
 16  4  1  0
 17 16  2  0
 18 17  1  0
 19 18  2  0
 20 19  1  0
 21 20  2  0
 21 16  1  0
  3 22  1  0
  9 23  1  0
 10 24  1  0
 11 25  1  0
 12 26  1  0
 14 27  1  0
 15 28  1  0
 17 29  1  0
 18 30  1  0
 19 31  1  0
 20 32  1  0
 21 33  1  0
M  END
>  <score>  (5) 
-9.157

$$$$
=
     RDKit          3D

 33 36  0  0  0  0  0  0  0  0999 V2000
   -0.0100   61.0320   73.2560 O   0  0  0  0  0  0  0  0  0  0  0  0
    0.7270   60.1070   72.9370 C   0  0  0  0  0  0  0  0  0  0  0  0
    0.4180   58.7640   73.4600 C   0  0  0  0  0  0  0  0  0  0  0  0
    1.1910   57.7180   73.1440 C   0  0  0  0  0  0  0  0  0  0  0  0
    2.3020   57.8390   72.3250 O   0  0  0  0  0  0  0  0  0  0  0  0
    2.6350   59.0680   71.8120 C   0  0  0  0  0  0  0  0  0  0  0  0
    1.9170   60.2430   72.0590 C   0  0  0  0  0  0  0  0  0  0  0  0
    2.3390   61.4820   71.4810 C   0  0  0  0  0  0  0  0  0  0  0  0
    1.7020   62.7390   71.6520 C   0  0  0  0  0  0  0  0  0  0  0  0
    2.1770   63.9080   71.0500 C   0  0  0  0  0  0  0  0  0  0  0  0
    3.3100   63.8650   70.2530 C   0  0  0  0  0  0  0  0  0  0  0  0
    3.9660   62.6530   70.0590 C   0  0  0  0  0  0  0  0  0  0  0  0
    3.4980   61.4700   70.6570 C   0  0  0  0  0  0  0  0  0  0  0  0
    4.1930   60.2740   70.4310 C   0  0  0  0  0  0  0  0  0  0  0  0
    3.7660   59.0820   71.0030 C   0  0  0  0  0  0  0  0  0  0  0  0
    0.9450   56.3300   73.6310 C   0  0  0  0  0  0  0  0  0  0  0  0
   -0.3670   55.9090   73.9270 C   0  0  0  0  0  0  0  0  0  0  0  0
   -0.6350   54.6150   74.3860 C   0  0  0  0  0  0  0  0  0  0  0  0
    0.4030   53.7090   74.5630 C   0  0  0  0  0  0  0  0  0  0  0  0
    1.7070   54.0960   74.2810 C   0  0  0  0  0  0  0  0  0  0  0  0
    1.9750   55.3920   73.8210 C   0  0  0  0  0  0  0  0  0  0  0  0
   -0.4542   58.6204   74.1147 H   0  0  0  0  0  0  0  0  0  0  0  0
    0.8016   62.7954   72.2813 H   0  0  0  0  0  0  0  0  0  0  0  0
    1.6518   64.8614   71.2088 H   0  0  0  0  0  0  0  0  0  0  0  0
    3.6880   64.7820   69.7773 H   0  0  0  0  0  0  0  0  0  0  0  0
    4.8658   62.6202   69.4271 H   0  0  0  0  0  0  0  0  0  0  0  0
    5.0885   60.2792   69.7922 H   0  0  0  0  0  0  0  0  0  0  0  0
    4.3215   58.1511   70.8163 H   0  0  0  0  0  0  0  0  0  0  0  0
   -1.2002   56.6148   73.7939 H   0  0  0  0  0  0  0  0  0  0  0  0
   -1.6697   54.3143   74.6072 H   0  0  0  0  0  0  0  0  0  0  0  0
    0.1937   52.6913   74.9243 H   0  0  0  0  0  0  0  0  0  0  0  0
    2.5324   53.3822   74.4194 H   0  0  0  0  0  0  0  0  0  0  0  0
    3.0136   55.6819   73.6038 H   0  0  0  0  0  0  0  0  0  0  0  0
  2  1  2  0
  3  2  1  0
  4  3  2  0
  5  4  1  0
  6  5  1  0
  7  6  2  0
  7  2  1  0
  8  7  1  0
  9  8  2  0
 10  9  1  0
 11 10  2  0
 12 11  1  0
 13  8  1  0
 13 12  2  0
 14 13  1  0
 15  6  1  0
 15 14  2  0
 16  4  1  0
 17 16  2  0
 18 17  1  0
 19 18  2  0
 20 19  1  0
 21 20  2  0
 21 16  1  0
  3 22  1  0
  9 23  1  0
 10 24  1  0
 11 25  1  0
 12 26  1  0
 14 27  1  0
 15 28  1  0
 17 29  1  0
 18 30  1  0
 19 31  1  0
 20 32  1  0
 21 33  1  0
M  END
>  <score>  (6) 
-8.862

$$$$
=
     RDKit          3D

 33 36  0  0  0  0  0  0  0  0999 V2000
    2.4090   59.3430   73.1080 O   0  0  0  0  0  0  0  0  0  0  0  0
    1.4420   60.0890   73.0300 C   0  0  0  0  0  0  0  0  0  0  0  0
    0.1760   59.6470   73.6440 C   0  0  0  0  0  0  0  0  0  0  0  0
   -0.9130   60.4230   73.5870 C   0  0  0  0  0  0  0  0  0  0  0  0
   -0.9100   61.6590   72.9600 O   0  0  0  0  0  0  0  0  0  0  0  0
    0.2420   62.1160   72.3720 C   0  0  0  0  0  0  0  0  0  0  0  0
    1.4510   61.4120   72.3560 C   0  0  0  0  0  0  0  0  0  0  0  0
    2.6030   61.9690   71.7170 C   0  0  0  0  0  0  0  0  0  0  0  0
    3.8830   61.3590   71.6320 C   0  0  0  0  0  0  0  0  0  0  0  0
    4.9630   61.9710   70.9890 C   0  0  0  0  0  0  0  0  0  0  0  0
    4.8050   63.2180   70.4050 C   0  0  0  0  0  0  0  0  0  0  0  0
    3.5670   63.8510   70.4660 C   0  0  0  0  0  0  0  0  0  0  0  0
    2.4740   63.2480   71.1100 C   0  0  0  0  0  0  0  0  0  0  0  0
    1.2480   63.9260   71.1440 C   0  0  0  0  0  0  0  0  0  0  0  0
    0.1400   63.3670   71.7700 C   0  0  0  0  0  0  0  0  0  0  0  0
   -2.2280   60.0480   74.1820 C   0  0  0  0  0  0  0  0  0  0  0  0
   -3.3240   60.9270   74.0820 C   0  0  0  0  0  0  0  0  0  0  0  0
   -4.5730   60.6090   74.6280 C   0  0  0  0  0  0  0  0  0  0  0  0
   -4.7560   59.4020   75.2910 C   0  0  0  0  0  0  0  0  0  0  0  0
   -3.6920   58.5150   75.4070 C   0  0  0  0  0  0  0  0  0  0  0  0
   -2.4430   58.8350   74.8590 C   0  0  0  0  0  0  0  0  0  0  0  0
    0.1264   58.6728   74.1523 H   0  0  0  0  0  0  0  0  0  0  0  0
    4.0298   60.3691   72.0887 H   0  0  0  0  0  0  0  0  0  0  0  0
    5.9378   61.4631   70.9466 H   0  0  0  0  0  0  0  0  0  0  0  0
    5.6514   63.7036   69.8973 H   0  0  0  0  0  0  0  0  0  0  0  0
    3.4424   64.8405   70.0019 H   0  0  0  0  0  0  0  0  0  0  0  0
    1.1613   64.9142   70.6687 H   0  0  0  0  0  0  0  0  0  0  0  0
   -0.8153   63.9119   71.7897 H   0  0  0  0  0  0  0  0  0  0  0  0
   -3.1952   61.8876   73.5617 H   0  0  0  0  0  0  0  0  0  0  0  0
   -5.4106   61.3156   74.5320 H   0  0  0  0  0  0  0  0  0  0  0  0
   -5.7364   59.1498   75.7213 H   0  0  0  0  0  0  0  0  0  0  0  0
   -3.8313   57.5580   75.9312 H   0  0  0  0  0  0  0  0  0  0  0  0
   -1.6122   58.1213   74.9608 H   0  0  0  0  0  0  0  0  0  0  0  0
  2  1  2  0
  3  2  1  0
  4  3  2  0
  5  4  1  0
  6  5  1  0
  7  6  2  0
  7  2  1  0
  8  7  1  0
  9  8  2  0
 10  9  1  0
 11 10  2  0
 12 11  1  0
 13  8  1  0
 13 12  2  0
 14 13  1  0
 15  6  1  0
 15 14  2  0
 16  4  1  0
 17 16  2  0
 18 17  1  0
 19 18  2  0
 20 19  1  0
 21 20  2  0
 21 16  1  0
  3 22  1  0
  9 23  1  0
 10 24  1  0
 11 25  1  0
 12 26  1  0
 14 27  1  0
 15 28  1  0
 17 29  1  0
 18 30  1  0
 19 31  1  0
 20 32  1  0
 21 33  1  0
M  END
>  <score>  (7) 
-8.81

$$$$
=
     RDKit          3D

 33 36  0  0  0  0  0  0  0  0999 V2000
   -2.0930   61.5980   73.5420 O   0  0  0  0  0  0  0  0  0  0  0  0
   -1.0450   61.0310   73.2620 C   0  0  0  0  0  0  0  0  0  0  0  0
   -0.0520   61.7690   72.4590 C   0  0  0  0  0  0  0  0  0  0  0  0
    1.1100   61.1960   72.1240 C   0  0  0  0  0  0  0  0  0  0  0  0
    1.4370   59.9050   72.5050 O   0  0  0  0  0  0  0  0  0  0  0  0
    0.5470   59.1740   73.2520 C   0  0  0  0  0  0  0  0  0  0  0  0
   -0.7010   59.6460   73.6730 C   0  0  0  0  0  0  0  0  0  0  0  0
   -1.5640   58.8120   74.4500 C   0  0  0  0  0  0  0  0  0  0  0  0
   -2.8490   59.1700   74.9360 C   0  0  0  0  0  0  0  0  0  0  0  0
   -3.6340   58.2940   75.6930 C   0  0  0  0  0  0  0  0  0  0  0  0
   -3.1640   57.0260   75.9930 C   0  0  0  0  0  0  0  0  0  0  0  0
   -1.9090   56.6340   75.5350 C   0  0  0  0  0  0  0  0  0  0  0  0
   -1.1090   57.5040   74.7740 C   0  0  0  0  0  0  0  0  0  0  0  0
    0.1470   57.0630   74.3370 C   0  0  0  0  0  0  0  0  0  0  0  0
    0.9700   57.8910   73.5820 C   0  0  0  0  0  0  0  0  0  0  0  0
    2.1650   61.8760   71.3160 C   0  0  0  0  0  0  0  0  0  0  0  0
    2.9970   61.1210   70.4670 C   0  0  0  0  0  0  0  0  0  0  0  0
    3.9960   61.7240   69.6940 C   0  0  0  0  0  0  0  0  0  0  0  0
    4.1890   63.0980   69.7530 C   0  0  0  0  0  0  0  0  0  0  0  0
    3.3830   63.8690   70.5830 C   0  0  0  0  0  0  0  0  0  0  0  0
    2.3830   63.2640   71.3560 C   0  0  0  0  0  0  0  0  0  0  0  0
   -0.2680   62.7972   72.1333 H   0  0  0  0  0  0  0  0  0  0  0  0
   -3.2414   60.1723   74.7091 H   0  0  0  0  0  0  0  0  0  0  0  0
   -4.6246   58.6121   76.0501 H   0  0  0  0  0  0  0  0  0  0  0  0
   -3.7776   56.3340   76.5885 H   0  0  0  0  0  0  0  0  0  0  0  0
   -1.5372   55.6264   75.7727 H   0  0  0  0  0  0  0  0  0  0  0  0
    0.4863   56.0488   74.5945 H   0  0  0  0  0  0  0  0  0  0  0  0
    1.9540   57.5319   73.2463 H   0  0  0  0  0  0  0  0  0  0  0  0
    2.8585   60.0312   70.4099 H   0  0  0  0  0  0  0  0  0  0  0  0
    4.6295   61.1084   69.0385 H   0  0  0  0  0  0  0  0  0  0  0  0
    4.9744   63.5732   69.1470 H   0  0  0  0  0  0  0  0  0  0  0  0
    3.5308   64.9579   70.6331 H   0  0  0  0  0  0  0  0  0  0  0  0
    1.7551   63.8888   72.0082 H   0  0  0  0  0  0  0  0  0  0  0  0
  2  1  2  0
  3  2  1  0
  4  3  2  0
  5  4  1  0
  6  5  1  0
  7  6  2  0
  7  2  1  0
  8  7  1  0
  9  8  2  0
 10  9  1  0
 11 10  2  0
 12 11  1  0
 13  8  1  0
 13 12  2  0
 14 13  1  0
 15  6  1  0
 15 14  2  0
 16  4  1  0
 17 16  2  0
 18 17  1  0
 19 18  2  0
 20 19  1  0
 21 20  2  0
 21 16  1  0
  3 22  1  0
  9 23  1  0
 10 24  1  0
 11 25  1  0
 12 26  1  0
 14 27  1  0
 15 28  1  0
 17 29  1  0
 18 30  1  0
 19 31  1  0
 20 32  1  0
 21 33  1  0
M  END
>  <score>  (8) 
-8.548

$$$$
=
     RDKit          3D

 33 36  0  0  0  0  0  0  0  0999 V2000
   -0.3610   62.9390   72.2080 O   0  0  0  0  0  0  0  0  0  0  0  0
   -0.0110   61.8170   72.5510 C   0  0  0  0  0  0  0  0  0  0  0  0
   -0.9850   60.9790   73.2740 C   0  0  0  0  0  0  0  0  0  0  0  0
   -0.6530   59.7450   73.6720 C   0  0  0  0  0  0  0  0  0  0  0  0
    0.5980   59.2000   73.4330 O   0  0  0  0  0  0  0  0  0  0  0  0
    1.5420   59.9390   72.7660 C   0  0  0  0  0  0  0  0  0  0  0  0
    1.3330   61.2390   72.2920 C   0  0  0  0  0  0  0  0  0  0  0  0
    2.3770   61.9350   71.6060 C   0  0  0  0  0  0  0  0  0  0  0  0
    2.2930   63.2510   71.0790 C   0  0  0  0  0  0  0  0  0  0  0  0
    3.3620   63.8620   70.4180 C   0  0  0  0  0  0  0  0  0  0  0  0
    4.5580   63.1810   70.2580 C   0  0  0  0  0  0  0  0  0  0  0  0
    4.6830   61.8890   70.7590 C   0  0  0  0  0  0  0  0  0  0  0  0
    3.6170   61.2620   71.4250 C   0  0  0  0  0  0  0  0  0  0  0  0
    3.7920   59.9590   71.9120 C   0  0  0  0  0  0  0  0  0  0  0  0
    2.7640   59.3020   72.5770 C   0  0  0  0  0  0  0  0  0  0  0  0
   -1.5810   58.8360   74.4070 C   0  0  0  0  0  0  0  0  0  0  0  0
   -1.1820   57.5190   74.7120 C   0  0  0  0  0  0  0  0  0  0  0  0
   -2.0250   56.6390   75.4000 C   0  0  0  0  0  0  0  0  0  0  0  0
   -3.2900   57.0530   75.7970 C   0  0  0  0  0  0  0  0  0  0  0  0
   -3.7110   58.3460   75.5090 C   0  0  0  0  0  0  0  0  0  0  0  0
   -2.8660   59.2270   74.8210 C   0  0  0  0  0  0  0  0  0  0  0  0
   -1.9906   61.3703   73.4876 H   0  0  0  0  0  0  0  0  0  0  0  0
    1.3526   63.8096   71.1953 H   0  0  0  0  0  0  0  0  0  0  0  0
    3.2539   64.8836   70.0247 H   0  0  0  0  0  0  0  0  0  0  0  0
    5.4023   63.6582   69.7388 H   0  0  0  0  0  0  0  0  0  0  0  0
    5.6330   61.3493   70.6313 H   0  0  0  0  0  0  0  0  0  0  0  0
    4.7561   59.4500   71.7657 H   0  0  0  0  0  0  0  0  0  0  0  0
    2.9163   58.2797   72.9534 H   0  0  0  0  0  0  0  0  0  0  0  0
   -0.1843   57.1747   74.4019 H   0  0  0  0  0  0  0  0  0  0  0  0
   -1.6852   55.6177   75.6268 H   0  0  0  0  0  0  0  0  0  0  0  0
   -3.9546   56.3618   76.3360 H   0  0  0  0  0  0  0  0  0  0  0  0
   -4.7115   58.6790   75.8224 H   0  0  0  0  0  0  0  0  0  0  0  0
   -3.2158   60.2463   74.6002 H   0  0  0  0  0  0  0  0  0  0  0  0
  2  1  2  0
  3  2  1  0
  4  3  2  0
  5  4  1  0
  6  5  1  0
  7  6  2  0
  7  2  1  0
  8  7  1  0
  9  8  2  0
 10  9  1  0
 11 10  2  0
 12 11  1  0
 13  8  1  0
 13 12  2  0
 14 13  1  0
 15  6  1  0
 15 14  2  0
 16  4  1  0
 17 16  2  0
 18 17  1  0
 19 18  2  0
 20 19  1  0
 21 20  2  0
 21 16  1  0
  3 22  1  0
  9 23  1  0
 10 24  1  0
 11 25  1  0
 12 26  1  0
 14 27  1  0
 15 28  1  0
 17 29  1  0
 18 30  1  0
 19 31  1  0
 20 32  1  0
 21 33  1  0
M  END
>  <score>  (9) 
-8.542

$$$$
