=
     RDKit          3D

 56 59  0  0  0  0  0  0  0  0999 V2000
    3.4330   60.2240   71.4490 C   0  0  2  0  0  0  0  0  0  0  0  0
    2.5900   59.3190   72.3890 C   0  0  0  0  0  0  0  0  0  0  0  0
    1.2870   60.0920   72.5190 C   0  0  2  0  0  0  0  0  0  0  0  0
    1.7490   61.5710   72.5920 C   0  0  2  0  0  0  0  0  0  0  0  0
    2.6540   61.5710   71.3270 C   0  0  1  0  0  0  0  0  0  0  0  0
    2.5810   61.8970   73.8710 C   0  0  0  0  0  0  0  0  0  0  0  0
    0.5290   62.5190   72.5750 C   0  0  0  0  0  0  0  0  0  0  0  0
   -0.8460   61.8380   72.4850 C   0  0  0  0  0  0  0  0  0  0  0  0
   -1.0390   60.5040   73.2600 C   0  0  1  0  0  0  0  0  0  0  0  0
    0.2890   59.7890   73.6210 C   0  0  1  0  0  0  0  0  0  0  0  0
    0.0000   58.3070   73.8660 C   0  0  0  0  0  0  0  0  0  0  0  0
   -1.1460   58.1440   74.8290 C   0  0  0  0  0  0  0  0  0  0  0  0
   -2.0230   59.1180   75.1490 C   0  0  0  0  0  0  0  0  0  0  0  0
   -2.0080   60.5180   74.4960 C   0  0  1  0  0  0  0  0  0  0  0  0
   -1.5540   61.5670   75.5350 C   0  0  0  0  0  0  0  0  0  0  0  0
   -3.4480   60.8550   74.0050 C   0  0  0  0  0  0  0  0  0  0  0  0
   -4.5370   60.6330   75.0540 C   0  0  0  0  0  0  0  0  0  0  0  0
   -4.5010   59.2120   75.6090 C   0  0  1  0  0  0  0  0  0  0  0  0
   -3.1170   58.8620   76.1610 C   0  0  0  0  0  0  0  0  0  0  0  0
    3.5530   62.7920   71.1280 C   0  0  0  0  0  0  0  0  0  0  0  0
    3.0980   63.9070   70.8720 O   0  0  0  0  0  0  0  0  0  0  0  0
    5.0480   62.5800   71.1510 C   0  0  0  0  0  0  0  0  0  0  0  0
    3.7510   59.0810   69.1000 N   0  0  0  0  0  0  0  0  0  0  0  0
    3.5990   59.5920   70.1290 C   0  0  0  0  0  0  0  0  0  0  0  0
   -5.4830   59.0800   76.6350 O   0  0  0  0  0  0  0  0  0  0  0  0
    4.4441   60.3858   71.8509 H   0  0  0  0  0  0  0  0  0  0  0  0
    2.4207   58.3294   71.9396 H   0  0  0  0  0  0  0  0  0  0  0  0
    3.0772   59.1200   73.3549 H   0  0  0  0  0  0  0  0  0  0  0  0
    0.6681   59.7864   71.6625 H   0  0  0  0  0  0  0  0  0  0  0  0
    2.0474   61.6486   70.4127 H   0  0  0  0  0  0  0  0  0  0  0  0
    1.9850   61.6635   74.7655 H   0  0  0  0  0  0  0  0  0  0  0  0
    3.5000   61.2924   73.8746 H   0  0  0  0  0  0  0  0  0  0  0  0
    2.8446   62.9649   73.8746 H   0  0  0  0  0  0  0  0  0  0  0  0
    0.5510   63.1140   73.4999 H   0  0  0  0  0  0  0  0  0  0  0  0
    0.6274   63.1161   71.6564 H   0  0  0  0  0  0  0  0  0  0  0  0
   -1.5922   62.5510   72.8656 H   0  0  0  0  0  0  0  0  0  0  0  0
   -0.9541   61.5642   71.4251 H   0  0  0  0  0  0  0  0  0  0  0  0
   -1.5693   59.9119   72.4996 H   0  0  0  0  0  0  0  0  0  0  0  0
    0.7425   60.1496   74.5560 H   0  0  0  0  0  0  0  0  0  0  0  0
   -0.2588   57.8262   72.9111 H   0  0  0  0  0  0  0  0  0  0  0  0
    0.8961   57.8370   74.2974 H   0  0  0  0  0  0  0  0  0  0  0  0
   -1.2775   57.1612   75.3053 H   0  0  0  0  0  0  0  0  0  0  0  0
   -1.7233   61.1758   76.5491 H   0  0  0  0  0  0  0  0  0  0  0  0
   -0.4834   61.7794   75.3979 H   0  0  0  0  0  0  0  0  0  0  0  0
   -2.1320   62.4928   75.3979 H   0  0  0  0  0  0  0  0  0  0  0  0
   -3.4706   61.9125   73.7031 H   0  0  0  0  0  0  0  0  0  0  0  0
   -3.6664   60.1689   73.1734 H   0  0  0  0  0  0  0  0  0  0  0  0
   -4.3865   61.3430   75.8806 H   0  0  0  0  0  0  0  0  0  0  0  0
   -5.5142   60.7903   74.5741 H   0  0  0  0  0  0  0  0  0  0  0  0
   -4.7211   58.5132   74.7885 H   0  0  0  0  0  0  0  0  0  0  0  0
   -2.9253   59.4749   77.0541 H   0  0  0  0  0  0  0  0  0  0  0  0
   -3.1097   57.7896   76.4058 H   0  0  0  0  0  0  0  0  0  0  0  0
    5.3953   62.5307   72.1936 H   0  0  0  0  0  0  0  0  0  0  0  0
    5.2927   61.6382   70.6381 H   0  0  0  0  0  0  0  0  0  0  0  0
    5.5449   63.4167   70.6381 H   0  0  0  0  0  0  0  0  0  0  0  0
   -5.0448   59.1389   77.5208 H   0  0  0  0  0  0  0  0  0  0  0  0
  2  1  1  0
  3  2  1  0
  4  3  1  0
  5  4  1  0
  5  1  1  0
  4  6  1  1
  7  4  1  0
  8  7  1  0
  9  8  1  0
 10  9  1  0
 10  3  1  0
 11 10  1  0
 12 11  1  0
 13 12  2  0
 14 13  1  0
 14  9  1  0
 14 15  1  1
 16 14  1  0
 17 16  1  0
 18 17  1  0
 19 18  1  0
 19 13  1  0
 20  5  1  0
 21 20  2  0
 22 20  1  0
 24 23  3  0
 24  1  1  0
 25 18  1  0
  1 26  1  1
  2 27  1  0
  2 28  1  0
  3 29  1  6
  5 30  1  6
  6 31  1  0
  6 32  1  0
  6 33  1  0
  7 34  1  0
  7 35  1  0
  8 36  1  0
  8 37  1  0
  9 38  1  6
 10 39  1  1
 11 40  1  0
 11 41  1  0
 12 42  1  0
 15 43  1  0
 15 44  1  0
 15 45  1  0
 16 46  1  0
 16 47  1  0
 17 48  1  0
 17 49  1  0
 18 50  1  6
 19 51  1  0
 19 52  1  0
 22 53  1  0
 22 54  1  0
 22 55  1  0
 25 56  1  0
M  END
>  <score>  (1) 
-8.552

$$$$
=
     RDKit          3D

 56 59  0  0  0  0  0  0  0  0999 V2000
   -0.8180   57.9670   76.0530 C   0  0  2  0  0  0  0  0  0  0  0  0
   -0.8470   59.2460   75.1710 C   0  0  0  0  0  0  0  0  0  0  0  0
    0.3040   59.0120   74.2040 C   0  0  2  0  0  0  0  0  0  0  0  0
    1.3920   58.3500   75.0890 C   0  0  2  0  0  0  0  0  0  0  0  0
    0.5090   57.2240   75.7000 C   0  0  1  0  0  0  0  0  0  0  0  0
    1.9410   59.2920   76.2040 C   0  0  0  0  0  0  0  0  0  0  0  0
    2.5910   57.9010   74.2240 C   0  0  0  0  0  0  0  0  0  0  0  0
    2.4720   58.1830   72.7180 C   0  0  0  0  0  0  0  0  0  0  0  0
    1.7890   59.5110   72.2870 C   0  0  1  0  0  0  0  0  0  0  0  0
    0.8970   60.1440   73.3860 C   0  0  1  0  0  0  0  0  0  0  0  0
   -0.1120   61.0830   72.7220 C   0  0  0  0  0  0  0  0  0  0  0  0
    0.5860   62.0290   71.7810 C   0  0  0  0  0  0  0  0  0  0  0  0
    1.8380   61.8550   71.3080 C   0  0  0  0  0  0  0  0  0  0  0  0
    2.6920   60.6050   71.6150 C   0  0  1  0  0  0  0  0  0  0  0  0
    3.8620   60.9950   72.5460 C   0  0  0  0  0  0  0  0  0  0  0  0
    3.2540   60.0430   70.2750 C   0  0  0  0  0  0  0  0  0  0  0  0
    3.9220   61.0910   69.3850 C   0  0  0  0  0  0  0  0  0  0  0  0
    2.9880   62.2650   69.1020 C   0  0  1  0  0  0  0  0  0  0  0  0
    2.4630   62.8880   70.3970 C   0  0  0  0  0  0  0  0  0  0  0  0
    1.1100   56.4390   76.8670 C   0  0  0  0  0  0  0  0  0  0  0  0
    1.9390   55.5440   76.6980 O   0  0  0  0  0  0  0  0  0  0  0  0
    0.5810   56.7180   78.2530 C   0  0  0  0  0  0  0  0  0  0  0  0
   -2.8880   56.4240   75.5450 N   0  0  0  0  0  0  0  0  0  0  0  0
   -1.9870   57.1150   75.7740 C   0  0  0  0  0  0  0  0  0  0  0  0
    3.6830   63.2470   68.3350 O   0  0  0  0  0  0  0  0  0  0  0  0
   -0.8591   58.2186   77.1231 H   0  0  0  0  0  0  0  0  0  0  0  0
   -1.8032   59.3365   74.6349 H   0  0  0  0  0  0  0  0  0  0  0  0
   -0.7491   60.1769   75.7488 H   0  0  0  0  0  0  0  0  0  0  0  0
   -0.1138   58.4235   73.3739 H   0  0  0  0  0  0  0  0  0  0  0  0
    0.3763   56.3998   74.9838 H   0  0  0  0  0  0  0  0  0  0  0  0
    1.6967   58.8728   77.1912 H   0  0  0  0  0  0  0  0  0  0  0  0
    3.0327   59.3816   76.1036 H   0  0  0  0  0  0  0  0  0  0  0  0
    1.4808   60.2860   76.1036 H   0  0  0  0  0  0  0  0  0  0  0  0
    3.4875   58.4195   74.5947 H   0  0  0  0  0  0  0  0  0  0  0  0
    2.6355   56.8061   74.3203 H   0  0  0  0  0  0  0  0  0  0  0  0
    3.4904   58.1865   72.3022 H   0  0  0  0  0  0  0  0  0  0  0  0
    1.8100   57.3915   72.3368 H   0  0  0  0  0  0  0  0  0  0  0  0
    1.1473   59.1447   71.4721 H   0  0  0  0  0  0  0  0  0  0  0  0
    1.4533   60.7770   74.0930 H   0  0  0  0  0  0  0  0  0  0  0  0
   -0.8444   60.4867   72.1581 H   0  0  0  0  0  0  0  0  0  0  0  0
   -0.6194   61.6686   73.5028 H   0  0  0  0  0  0  0  0  0  0  0  0
    0.0367   62.9250   71.4562 H   0  0  0  0  0  0  0  0  0  0  0  0
    3.5468   60.8899   73.5946 H   0  0  0  0  0  0  0  0  0  0  0  0
    4.7200   60.3343   72.3531 H   0  0  0  0  0  0  0  0  0  0  0  0
    4.1520   62.0384   72.3531 H   0  0  0  0  0  0  0  0  0  0  0  0
    3.9973   59.2673   70.5114 H   0  0  0  0  0  0  0  0  0  0  0  0
    2.3938   59.6527   69.7113 H   0  0  0  0  0  0  0  0  0  0  0  0
    4.8240   61.4662   69.8905 H   0  0  0  0  0  0  0  0  0  0  0  0
    4.1780   60.6159   68.4265 H   0  0  0  0  0  0  0  0  0  0  0  0
    2.1222   61.8910   68.5358 H   0  0  0  0  0  0  0  0  0  0  0  0
    3.2999   63.3680   70.9253 H   0  0  0  0  0  0  0  0  0  0  0  0
    1.6877   63.6219   70.1319 H   0  0  0  0  0  0  0  0  0  0  0  0
    1.2948   56.3416   79.0005 H   0  0  0  0  0  0  0  0  0  0  0  0
    0.4504   57.8023   78.3842 H   0  0  0  0  0  0  0  0  0  0  0  0
   -0.3876   56.2135   78.3842 H   0  0  0  0  0  0  0  0  0  0  0  0
    4.1336   63.8837   68.9446 H   0  0  0  0  0  0  0  0  0  0  0  0
  2  1  1  0
  3  2  1  0
  4  3  1  0
  5  4  1  0
  5  1  1  0
  4  6  1  1
  7  4  1  0
  8  7  1  0
  9  8  1  0
 10  9  1  0
 10  3  1  0
 11 10  1  0
 12 11  1  0
 13 12  2  0
 14 13  1  0
 14  9  1  0
 14 15  1  1
 16 14  1  0
 17 16  1  0
 18 17  1  0
 19 18  1  0
 19 13  1  0
 20  5  1  0
 21 20  2  0
 22 20  1  0
 24 23  3  0
 24  1  1  0
 25 18  1  0
  1 26  1  1
  2 27  1  0
  2 28  1  0
  3 29  1  6
  5 30  1  6
  6 31  1  0
  6 32  1  0
  6 33  1  0
  7 34  1  0
  7 35  1  0
  8 36  1  0
  8 37  1  0
  9 38  1  6
 10 39  1  1
 11 40  1  0
 11 41  1  0
 12 42  1  0
 15 43  1  0
 15 44  1  0
 15 45  1  0
 16 46  1  0
 16 47  1  0
 17 48  1  0
 17 49  1  0
 18 50  1  6
 19 51  1  0
 19 52  1  0
 22 53  1  0
 22 54  1  0
 22 55  1  0
 25 56  1  0
M  END
>  <score>  (2) 
-7.748

$$$$
=
     RDKit          3D

 56 59  0  0  0  0  0  0  0  0999 V2000
    2.8080   63.1390   70.9850 C   0  0  2  0  0  0  0  0  0  0  0  0
    3.2840   61.8920   71.7800 C   0  0  0  0  0  0  0  0  0  0  0  0
    1.9760   61.2700   72.2440 C   0  0  2  0  0  0  0  0  0  0  0  0
    1.1000   62.4970   72.6070 C   0  0  2  0  0  0  0  0  0  0  0  0
    1.2810   63.2850   71.2780 C   0  0  1  0  0  0  0  0  0  0  0  0
    1.6500   63.3140   73.8170 C   0  0  0  0  0  0  0  0  0  0  0  0
   -0.3360   62.0500   72.9600 C   0  0  0  0  0  0  0  0  0  0  0  0
   -0.6050   60.5380   72.8790 C   0  0  0  0  0  0  0  0  0  0  0  0
    0.5310   59.5810   73.3360 C   0  0  1  0  0  0  0  0  0  0  0  0
    1.9360   60.2380   73.3550 C   0  0  1  0  0  0  0  0  0  0  0  0
    2.9960   59.1380   73.2780 C   0  0  0  0  0  0  0  0  0  0  0  0
    2.7270   58.0710   74.3060 C   0  0  0  0  0  0  0  0  0  0  0  0
    1.5520   57.9060   74.9490 C   0  0  0  0  0  0  0  0  0  0  0  0
    0.2960   58.7500   74.6470 C   0  0  1  0  0  0  0  0  0  0  0  0
    0.0030   59.6860   75.8410 C   0  0  0  0  0  0  0  0  0  0  0  0
   -0.9110   57.7900   74.4260 C   0  0  0  0  0  0  0  0  0  0  0  0
   -1.0800   56.7320   75.5160 C   0  0  0  0  0  0  0  0  0  0  0  0
    0.1980   55.9200   75.7130 C   0  0  1  0  0  0  0  0  0  0  0  0
    1.3990   56.8250   75.9970 C   0  0  0  0  0  0  0  0  0  0  0  0
    0.7830   64.7310   71.2650 C   0  0  0  0  0  0  0  0  0  0  0  0
   -0.1290   65.1170   71.9960 O   0  0  0  0  0  0  0  0  0  0  0  0
    1.3750   65.6720   70.2440 C   0  0  0  0  0  0  0  0  0  0  0  0
    3.2540   62.7960   68.4140 N   0  0  0  0  0  0  0  0  0  0  0  0
    3.0510   62.9610   69.5430 C   0  0  0  0  0  0  0  0  0  0  0  0
    0.0130   55.0030   76.7900 O   0  0  0  0  0  0  0  0  0  0  0  0
    3.3586   64.0415   71.2889 H   0  0  0  0  0  0  0  0  0  0  0  0
    3.8447   61.2003   71.1340 H   0  0  0  0  0  0  0  0  0  0  0  0
    3.9676   62.1367   72.6063 H   0  0  0  0  0  0  0  0  0  0  0  0
    1.6413   60.6225   71.4202 H   0  0  0  0  0  0  0  0  0  0  0  0
    0.6378   62.8703   70.4879 H   0  0  0  0  0  0  0  0  0  0  0  0
    1.3301   62.8388   74.7561 H   0  0  0  0  0  0  0  0  0  0  0  0
    2.7489   63.3381   73.7740 H   0  0  0  0  0  0  0  0  0  0  0  0
    1.2588   64.3412   73.7740 H   0  0  0  0  0  0  0  0  0  0  0  0
   -0.5476   62.3758   73.9891 H   0  0  0  0  0  0  0  0  0  0  0  0
   -0.9871   62.5104   72.2023 H   0  0  0  0  0  0  0  0  0  0  0  0
   -1.4853   60.3262   73.5036 H   0  0  0  0  0  0  0  0  0  0  0  0
   -0.7290   60.3328   71.8054 H   0  0  0  0  0  0  0  0  0  0  0  0
    0.4943   58.8359   72.5276 H   0  0  0  0  0  0  0  0  0  0  0  0
    2.1545   60.7800   74.2869 H   0  0  0  0  0  0  0  0  0  0  0  0
    2.9768   58.6869   72.2750 H   0  0  0  0  0  0  0  0  0  0  0  0
    3.9829   59.5815   73.4765 H   0  0  0  0  0  0  0  0  0  0  0  0
    3.5454   57.3776   74.5499 H   0  0  0  0  0  0  0  0  0  0  0  0
    0.1729   59.1433   76.7826 H   0  0  0  0  0  0  0  0  0  0  0  0
    0.6709   60.5588   75.7952 H   0  0  0  0  0  0  0  0  0  0  0  0
   -1.0434   60.0222   75.7952 H   0  0  0  0  0  0  0  0  0  0  0  0
   -1.8293   58.3943   74.3869 H   0  0  0  0  0  0  0  0  0  0  0  0
   -0.7158   57.2486   73.4886 H   0  0  0  0  0  0  0  0  0  0  0  0
   -1.3351   57.2317   76.4622 H   0  0  0  0  0  0  0  0  0  0  0  0
   -1.8809   56.0442   75.2071 H   0  0  0  0  0  0  0  0  0  0  0  0
    0.4063   55.3698   74.7835 H   0  0  0  0  0  0  0  0  0  0  0  0
    1.2620   57.2995   76.9799 H   0  0  0  0  0  0  0  0  0  0  0  0
    2.3060   56.2029   75.9797 H   0  0  0  0  0  0  0  0  0  0  0  0
    1.8924   66.4944   70.7598 H   0  0  0  0  0  0  0  0  0  0  0  0
    2.0922   65.1254   69.6141 H   0  0  0  0  0  0  0  0  0  0  0  0
    0.5718   66.0820   69.6141 H   0  0  0  0  0  0  0  0  0  0  0  0
    0.1096   55.4816   77.6512 H   0  0  0  0  0  0  0  0  0  0  0  0
  2  1  1  0
  3  2  1  0
  4  3  1  0
  5  4  1  0
  5  1  1  0
  4  6  1  1
  7  4  1  0
  8  7  1  0
  9  8  1  0
 10  9  1  0
 10  3  1  0
 11 10  1  0
 12 11  1  0
 13 12  2  0
 14 13  1  0
 14  9  1  0
 14 15  1  1
 16 14  1  0
 17 16  1  0
 18 17  1  0
 19 18  1  0
 19 13  1  0
 20  5  1  0
 21 20  2  0
 22 20  1  0
 24 23  3  0
 24  1  1  0
 25 18  1  0
  1 26  1  1
  2 27  1  0
  2 28  1  0
  3 29  1  6
  5 30  1  6
  6 31  1  0
  6 32  1  0
  6 33  1  0
  7 34  1  0
  7 35  1  0
  8 36  1  0
  8 37  1  0
  9 38  1  6
 10 39  1  1
 11 40  1  0
 11 41  1  0
 12 42  1  0
 15 43  1  0
 15 44  1  0
 15 45  1  0
 16 46  1  0
 16 47  1  0
 17 48  1  0
 17 49  1  0
 18 50  1  6
 19 51  1  0
 19 52  1  0
 22 53  1  0
 22 54  1  0
 22 55  1  0
 25 56  1  0
M  END
>  <score>  (3) 
-7.664

$$$$
=
     RDKit          3D

 56 59  0  0  0  0  0  0  0  0999 V2000
    1.6870   63.8670   70.0940 C   0  0  2  0  0  0  0  0  0  0  0  0
    0.4570   63.1200   70.6780 C   0  0  0  0  0  0  0  0  0  0  0  0
    1.0170   62.4910   71.9450 C   0  0  2  0  0  0  0  0  0  0  0  0
    2.4410   62.0390   71.5270 C   0  0  2  0  0  0  0  0  0  0  0  0
    2.9210   63.3900   70.9250 C   0  0  1  0  0  0  0  0  0  0  0  0
    2.4410   60.9170   70.4430 C   0  0  0  0  0  0  0  0  0  0  0  0
    3.2190   61.5070   72.7500 C   0  0  0  0  0  0  0  0  0  0  0  0
    2.4630   61.5350   74.0880 C   0  0  0  0  0  0  0  0  0  0  0  0
    0.9440   61.2080   74.0610 C   0  0  1  0  0  0  0  0  0  0  0  0
    0.2910   61.3690   72.6640 C   0  0  1  0  0  0  0  0  0  0  0  0
   -1.2160   61.5610   72.8430 C   0  0  0  0  0  0  0  0  0  0  0  0
   -1.7830   60.4940   73.7410 C   0  0  0  0  0  0  0  0  0  0  0  0
   -1.0470   59.7100   74.5570 C   0  0  0  0  0  0  0  0  0  0  0  0
    0.4790   59.8670   74.7330 C   0  0  1  0  0  0  0  0  0  0  0  0
    1.1990   58.6580   74.0940 C   0  0  0  0  0  0  0  0  0  0  0  0
    0.8030   59.9260   76.2560 C   0  0  0  0  0  0  0  0  0  0  0  0
    0.1610   58.8090   77.0790 C   0  0  0  0  0  0  0  0  0  0  0  0
   -1.3520   58.7600   76.8740 C   0  0  1  0  0  0  0  0  0  0  0  0
   -1.7120   58.6370   75.3910 C   0  0  0  0  0  0  0  0  0  0  0  0
    4.2290   63.3620   70.1320 C   0  0  0  0  0  0  0  0  0  0  0  0
    5.3080   63.6730   70.6350 O   0  0  0  0  0  0  0  0  0  0  0  0
    4.1550   63.0340   68.6600 C   0  0  0  0  0  0  0  0  0  0  0  0
    1.3630   66.4720   70.2640 N   0  0  0  0  0  0  0  0  0  0  0  0
    1.5120   65.3250   70.2040 C   0  0  0  0  0  0  0  0  0  0  0  0
   -1.8900   57.6570   77.6000 O   0  0  0  0  0  0  0  0  0  0  0  0
    1.8187   63.6452   69.0247 H   0  0  0  0  0  0  0  0  0  0  0  0
   -0.3588   63.8204   70.9102 H   0  0  0  0  0  0  0  0  0  0  0  0
    0.0215   62.3870   69.9830 H   0  0  0  0  0  0  0  0  0  0  0  0
    0.9281   63.2593   72.7272 H   0  0  0  0  0  0  0  0  0  0  0  0
    3.2137   64.0893   71.7220 H   0  0  0  0  0  0  0  0  0  0  0  0
    3.4781   60.6533   70.1882 H   0  0  0  0  0  0  0  0  0  0  0  0
    1.9225   60.0292   70.8342 H   0  0  0  0  0  0  0  0  0  0  0  0
    1.9225   61.2774   69.5423 H   0  0  0  0  0  0  0  0  0  0  0  0
    3.5005   60.4639   72.5432 H   0  0  0  0  0  0  0  0  0  0  0  0
    4.0758   62.1851   72.8769 H   0  0  0  0  0  0  0  0  0  0  0  0
    2.9454   60.8047   74.7543 H   0  0  0  0  0  0  0  0  0  0  0  0
    2.5182   62.5825   74.4191 H   0  0  0  0  0  0  0  0  0  0  0  0
    0.5638   61.9966   74.7270 H   0  0  0  0  0  0  0  0  0  0  0  0
    0.3912   60.4780   72.0268 H   0  0  0  0  0  0  0  0  0  0  0  0
   -1.4040   62.5479   73.2909 H   0  0  0  0  0  0  0  0  0  0  0  0
   -1.7019   61.4911   71.8586 H   0  0  0  0  0  0  0  0  0  0  0  0
   -2.8725   60.3428   73.7316 H   0  0  0  0  0  0  0  0  0  0  0  0
    1.5892   58.0027   74.8867 H   0  0  0  0  0  0  0  0  0  0  0  0
    0.4885   58.0958   73.4702 H   0  0  0  0  0  0  0  0  0  0  0  0
    2.0318   59.0149   73.4702 H   0  0  0  0  0  0  0  0  0  0  0  0
    1.8942   59.8610   76.3789 H   0  0  0  0  0  0  0  0  0  0  0  0
    0.3865   60.8727   76.6304 H   0  0  0  0  0  0  0  0  0  0  0  0
    0.5944   57.8454   76.7729 H   0  0  0  0  0  0  0  0  0  0  0  0
    0.3585   59.0075   78.1428 H   0  0  0  0  0  0  0  0  0  0  0  0
   -1.7845   59.7004   77.2462 H   0  0  0  0  0  0  0  0  0  0  0  0
   -1.3868   57.6513   75.0269 H   0  0  0  0  0  0  0  0  0  0  0  0
   -2.8012   58.7566   75.2940 H   0  0  0  0  0  0  0  0  0  0  0  0
    3.9145   61.9681   68.5335 H   0  0  0  0  0  0  0  0  0  0  0  0
    3.3722   63.6451   68.1871 H   0  0  0  0  0  0  0  0  0  0  0  0
    5.1244   63.2498   68.1871 H   0  0  0  0  0  0  0  0  0  0  0  0
   -1.8062   57.8289   78.5714 H   0  0  0  0  0  0  0  0  0  0  0  0
  2  1  1  0
  3  2  1  0
  4  3  1  0
  5  4  1  0
  5  1  1  0
  4  6  1  6
  7  4  1  0
  8  7  1  0
  9  8  1  0
 10  9  1  0
 10  3  1  0
 11 10  1  0
 12 11  1  0
 13 12  2  0
 14 13  1  0
 14  9  1  0
 14 15  1  6
 16 14  1  0
 17 16  1  0
 18 17  1  0
 19 18  1  0
 19 13  1  0
 20  5  1  0
 21 20  2  0
 22 20  1  0
 24 23  3  0
 24  1  1  0
 25 18  1  0
  1 26  1  6
  2 27  1  0
  2 28  1  0
  3 29  1  1
  5 30  1  1
  6 31  1  0
  6 32  1  0
  6 33  1  0
  7 34  1  0
  7 35  1  0
  8 36  1  0
  8 37  1  0
  9 38  1  1
 10 39  1  6
 11 40  1  0
 11 41  1  0
 12 42  1  0
 15 43  1  0
 15 44  1  0
 15 45  1  0
 16 46  1  0
 16 47  1  0
 17 48  1  0
 17 49  1  0
 18 50  1  1
 19 51  1  0
 19 52  1  0
 22 53  1  0
 22 54  1  0
 22 55  1  0
 25 56  1  0
M  END
>  <score>  (4) 
-7.62

$$$$
=
     RDKit          3D

 56 59  0  0  0  0  0  0  0  0999 V2000
    2.3290   57.7370   75.9960 C   0  0  2  0  0  0  0  0  0  0  0  0
    2.6140   57.7160   74.4680 C   0  0  0  0  0  0  0  0  0  0  0  0
    2.6730   59.1950   74.1180 C   0  0  2  0  0  0  0  0  0  0  0  0
    1.5500   59.8190   74.9870 C   0  0  2  0  0  0  0  0  0  0  0  0
    1.9830   59.2170   76.3540 C   0  0  1  0  0  0  0  0  0  0  0  0
    0.1200   59.3330   74.5930 C   0  0  0  0  0  0  0  0  0  0  0  0
    1.5680   61.3590   74.8680 C   0  0  0  0  0  0  0  0  0  0  0  0
    2.6550   61.9470   73.9540 C   0  0  0  0  0  0  0  0  0  0  0  0
    3.0020   61.1660   72.6550 C   0  0  1  0  0  0  0  0  0  0  0  0
    2.5680   59.6770   72.6830 C   0  0  1  0  0  0  0  0  0  0  0  0
    3.4000   58.9020   71.6600 C   0  0  0  0  0  0  0  0  0  0  0  0
    3.3750   59.5950   70.3240 C   0  0  0  0  0  0  0  0  0  0  0  0
    2.9940   60.8760   70.1310 C   0  0  0  0  0  0  0  0  0  0  0  0
    2.6090   61.8260   71.2860 C   0  0  1  0  0  0  0  0  0  0  0  0
    1.0920   62.1140   71.2330 C   0  0  0  0  0  0  0  0  0  0  0  0
    3.4020   63.1580   71.1220 C   0  0  0  0  0  0  0  0  0  0  0  0
    3.3280   63.7650   69.7210 C   0  0  0  0  0  0  0  0  0  0  0  0
    3.7680   62.7670   68.6530 C   0  0  1  0  0  0  0  0  0  0  0  0
    2.9670   61.4650   68.7390 C   0  0  0  0  0  0  0  0  0  0  0  0
    0.9920   59.3600   77.5100 C   0  0  0  0  0  0  0  0  0  0  0  0
    0.8770   60.4050   78.1500 O   0  0  0  0  0  0  0  0  0  0  0  0
    0.2130   58.1360   77.9280 C   0  0  0  0  0  0  0  0  0  0  0  0
    4.4230   56.9280   77.3680 N   0  0  0  0  0  0  0  0  0  0  0  0
    3.5070   57.2770   76.7510 C   0  0  0  0  0  0  0  0  0  0  0  0
    3.6070   63.3550   67.3630 O   0  0  0  0  0  0  0  0  0  0  0  0
    1.5015   57.0612   76.2579 H   0  0  0  0  0  0  0  0  0  0  0  0
    3.5704   57.2184   74.2498 H   0  0  0  0  0  0  0  0  0  0  0  0
    1.8597   57.1609   73.8911 H   0  0  0  0  0  0  0  0  0  0  0  0
    3.7092   59.5094   74.3114 H   0  0  0  0  0  0  0  0  0  0  0  0
    2.8293   59.7780   76.7771 H   0  0  0  0  0  0  0  0  0  0  0  0
   -0.4638   59.1346   75.5040 H   0  0  0  0  0  0  0  0  0  0  0  0
   -0.3810   60.1113   73.9987 H   0  0  0  0  0  0  0  0  0  0  0  0
    0.1970   58.4106   73.9987 H   0  0  0  0  0  0  0  0  0  0  0  0
    0.5903   61.6788   74.4784 H   0  0  0  0  0  0  0  0  0  0  0  0
    1.7919   61.7339   75.8776 H   0  0  0  0  0  0  0  0  0  0  0  0
    2.3252   62.9530   73.6552 H   0  0  0  0  0  0  0  0  0  0  0  0
    3.5752   61.9121   74.5556 H   0  0  0  0  0  0  0  0  0  0  0  0
    4.1003   61.2202   72.6822 H   0  0  0  0  0  0  0  0  0  0  0  0
    1.5225   59.5183   72.3800 H   0  0  0  0  0  0  0  0  0  0  0  0
    4.4394   58.8366   72.0141 H   0  0  0  0  0  0  0  0  0  0  0  0
    2.9734   57.8946   71.5454 H   0  0  0  0  0  0  0  0  0  0  0  0
    3.6894   59.0170   69.4425 H   0  0  0  0  0  0  0  0  0  0  0  0
    0.6970   62.1890   72.2569 H   0  0  0  0  0  0  0  0  0  0  0  0
    0.9170   63.0614   70.7022 H   0  0  0  0  0  0  0  0  0  0  0  0
    0.5819   61.2966   70.7022 H   0  0  0  0  0  0  0  0  0  0  0  0
    2.9976   63.8900   71.8365 H   0  0  0  0  0  0  0  0  0  0  0  0
    4.4599   62.9199   71.3070 H   0  0  0  0  0  0  0  0  0  0  0  0
    2.2909   64.0706   69.5186 H   0  0  0  0  0  0  0  0  0  0  0  0
    4.0064   64.6301   69.6843 H   0  0  0  0  0  0  0  0  0  0  0  0
    4.8264   62.5202   68.8228 H   0  0  0  0  0  0  0  0  0  0  0  0
    1.9230   61.6710   68.4604 H   0  0  0  0  0  0  0  0  0  0  0  0
    3.4251   60.7376   68.0527 H   0  0  0  0  0  0  0  0  0  0  0  0
    0.1780   58.0810   79.0261 H   0  0  0  0  0  0  0  0  0  0  0  0
   -0.8110   58.1999   77.5312 H   0  0  0  0  0  0  0  0  0  0  0  0
    0.7044   57.2354   77.5312 H   0  0  0  0  0  0  0  0  0  0  0  0
    3.3469   64.3049   67.4635 H   0  0  0  0  0  0  0  0  0  0  0  0
  2  1  1  0
  3  2  1  0
  4  3  1  0
  5  4  1  0
  5  1  1  0
  4  6  1  6
  7  4  1  0
  8  7  1  0
  9  8  1  0
 10  9  1  0
 10  3  1  0
 11 10  1  0
 12 11  1  0
 13 12  2  0
 14 13  1  0
 14  9  1  0
 14 15  1  1
 16 14  1  0
 17 16  1  0
 18 17  1  0
 19 18  1  0
 19 13  1  0
 20  5  1  0
 21 20  2  0
 22 20  1  0
 24 23  3  0
 24  1  1  0
 25 18  1  0
  1 26  1  6
  2 27  1  0
  2 28  1  0
  3 29  1  1
  5 30  1  1
  6 31  1  0
  6 32  1  0
  6 33  1  0
  7 34  1  0
  7 35  1  0
  8 36  1  0
  8 37  1  0
  9 38  1  6
 10 39  1  6
 11 40  1  0
 11 41  1  0
 12 42  1  0
 15 43  1  0
 15 44  1  0
 15 45  1  0
 16 46  1  0
 16 47  1  0
 17 48  1  0
 17 49  1  0
 18 50  1  1
 19 51  1  0
 19 52  1  0
 22 53  1  0
 22 54  1  0
 22 55  1  0
 25 56  1  0
M  END
>  <score>  (5) 
-7.446

$$$$
=
     RDKit          3D

 56 59  0  0  0  0  0  0  0  0999 V2000
    0.9760   62.5240   72.8280 C   0  0  2  0  0  0  0  0  0  0  0  0
    1.6800   61.1640   72.5650 C   0  0  0  0  0  0  0  0  0  0  0  0
    0.7320   60.1650   73.2100 C   0  0  2  0  0  0  0  0  0  0  0  0
    0.2580   60.8920   74.4960 C   0  0  2  0  0  0  0  0  0  0  0  0
   -0.1830   62.2270   73.8310 C   0  0  1  0  0  0  0  0  0  0  0  0
    1.4040   61.1360   75.5260 C   0  0  0  0  0  0  0  0  0  0  0  0
   -0.8420   60.0720   75.2060 C   0  0  0  0  0  0  0  0  0  0  0  0
   -1.2390   58.7530   74.5220 C   0  0  0  0  0  0  0  0  0  0  0  0
   -0.1100   57.9250   73.8470 C   0  0  1  0  0  0  0  0  0  0  0  0
    1.1660   58.7460   73.5270 C   0  0  1  0  0  0  0  0  0  0  0  0
    1.9510   58.0300   72.4270 C   0  0  0  0  0  0  0  0  0  0  0  0
    2.1430   56.5780   72.7740 C   0  0  0  0  0  0  0  0  0  0  0  0
    1.4370   55.9140   73.7140 C   0  0  0  0  0  0  0  0  0  0  0  0
    0.2720   56.5510   74.5030 C   0  0  1  0  0  0  0  0  0  0  0  0
    0.6930   56.7470   75.9760 C   0  0  0  0  0  0  0  0  0  0  0  0
   -0.9590   55.5980   74.4310 C   0  0  0  0  0  0  0  0  0  0  0  0
   -0.6490   54.1430   74.7810 C   0  0  0  0  0  0  0  0  0  0  0  0
    0.4840   53.5880   73.9210 C   0  0  1  0  0  0  0  0  0  0  0  0
    1.7370   54.4630   74.0140 C   0  0  0  0  0  0  0  0  0  0  0  0
   -0.4990   63.3900   74.7740 C   0  0  0  0  0  0  0  0  0  0  0  0
   -1.5250   63.4230   75.4530 O   0  0  0  0  0  0  0  0  0  0  0  0
    0.4410   64.5710   74.7790 C   0  0  0  0  0  0  0  0  0  0  0  0
    0.0390   63.5080   70.5740 N   0  0  0  0  0  0  0  0  0  0  0  0
    0.4520   63.0890   71.5730 C   0  0  0  0  0  0  0  0  0  0  0  0
    0.7860   52.2580   74.3390 O   0  0  0  0  0  0  0  0  0  0  0  0
    1.6770   63.2649   73.2399 H   0  0  0  0  0  0  0  0  0  0  0  0
    1.7834   60.9731   71.4866 H   0  0  0  0  0  0  0  0  0  0  0  0
    2.7026   61.1173   72.9677 H   0  0  0  0  0  0  0  0  0  0  0  0
   -0.0213   59.9276   72.4444 H   0  0  0  0  0  0  0  0  0  0  0  0
   -1.1659   62.1168   73.3495 H   0  0  0  0  0  0  0  0  0  0  0  0
    1.0036   61.0508   76.5470 H   0  0  0  0  0  0  0  0  0  0  0  0
    2.1952   60.3862   75.3786 H   0  0  0  0  0  0  0  0  0  0  0  0
    1.8212   62.1431   75.3786 H   0  0  0  0  0  0  0  0  0  0  0  0
   -0.4846   59.8331   76.2185 H   0  0  0  0  0  0  0  0  0  0  0  0
   -1.7436   60.7018   75.1874 H   0  0  0  0  0  0  0  0  0  0  0  0
   -1.7048   58.1131   75.2860 H   0  0  0  0  0  0  0  0  0  0  0  0
   -1.8978   59.0545   73.6943 H   0  0  0  0  0  0  0  0  0  0  0  0
   -0.6062   57.6521   72.9040 H   0  0  0  0  0  0  0  0  0  0  0  0
    1.8645   58.8192   74.3736 H   0  0  0  0  0  0  0  0  0  0  0  0
    1.3969   58.1053   71.4797 H   0  0  0  0  0  0  0  0  0  0  0  0
    2.9382   58.5051   72.3286 H   0  0  0  0  0  0  0  0  0  0  0  0
    2.9130   56.0183   72.2228 H   0  0  0  0  0  0  0  0  0  0  0  0
   -0.1037   56.3761   76.6375 H   0  0  0  0  0  0  0  0  0  0  0  0
    1.6204   56.1880   76.1698 H   0  0  0  0  0  0  0  0  0  0  0  0
    0.8622   57.8165   76.1698 H   0  0  0  0  0  0  0  0  0  0  0  0
   -1.7214   55.9664   75.1332 H   0  0  0  0  0  0  0  0  0  0  0  0
   -1.3018   55.6045   73.3858 H   0  0  0  0  0  0  0  0  0  0  0  0
   -0.3552   54.0851   75.8395 H   0  0  0  0  0  0  0  0  0  0  0  0
   -1.5513   53.5433   74.5908 H   0  0  0  0  0  0  0  0  0  0  0  0
    0.1544   53.5850   72.8716 H   0  0  0  0  0  0  0  0  0  0  0  0
    2.1479   54.3882   75.0316 H   0  0  0  0  0  0  0  0  0  0  0  0
    2.4593   54.1034   73.2663 H   0  0  0  0  0  0  0  0  0  0  0  0
    0.6672   64.8552   75.8173 H   0  0  0  0  0  0  0  0  0  0  0  0
    1.3731   64.2999   74.2617 H   0  0  0  0  0  0  0  0  0  0  0  0
   -0.0323   65.4186   74.2617 H   0  0  0  0  0  0  0  0  0  0  0  0
    0.7953   52.2170   75.3281 H   0  0  0  0  0  0  0  0  0  0  0  0
  2  1  1  0
  3  2  1  0
  4  3  1  0
  5  4  1  0
  5  1  1  0
  4  6  1  1
  7  4  1  0
  8  7  1  0
  9  8  1  0
 10  9  1  0
 10  3  1  0
 11 10  1  0
 12 11  1  0
 13 12  2  0
 14 13  1  0
 14  9  1  0
 14 15  1  1
 16 14  1  0
 17 16  1  0
 18 17  1  0
 19 18  1  0
 19 13  1  0
 20  5  1  0
 21 20  2  0
 22 20  1  0
 24 23  3  0
 24  1  1  0
 25 18  1  0
  1 26  1  1
  2 27  1  0
  2 28  1  0
  3 29  1  6
  5 30  1  6
  6 31  1  0
  6 32  1  0
  6 33  1  0
  7 34  1  0
  7 35  1  0
  8 36  1  0
  8 37  1  0
  9 38  1  6
 10 39  1  1
 11 40  1  0
 11 41  1  0
 12 42  1  0
 15 43  1  0
 15 44  1  0
 15 45  1  0
 16 46  1  0
 16 47  1  0
 17 48  1  0
 17 49  1  0
 18 50  1  6
 19 51  1  0
 19 52  1  0
 22 53  1  0
 22 54  1  0
 22 55  1  0
 25 56  1  0
M  END
>  <score>  (6) 
-7.413

$$$$
=
     RDKit          3D

 56 59  0  0  0  0  0  0  0  0999 V2000
    0.4580   63.6200   71.5150 C   0  0  2  0  0  0  0  0  0  0  0  0
   -0.2780   62.3360   71.9900 C   0  0  0  0  0  0  0  0  0  0  0  0
    0.8350   61.5380   72.6520 C   0  0  2  0  0  0  0  0  0  0  0  0
    2.0580   61.7890   71.7330 C   0  0  2  0  0  0  0  0  0  0  0  0
    1.9830   63.3420   71.7030 C   0  0  1  0  0  0  0  0  0  0  0  0
    1.8880   61.1970   70.3000 C   0  0  0  0  0  0  0  0  0  0  0  0
    3.3320   61.1660   72.3470 C   0  0  0  0  0  0  0  0  0  0  0  0
    3.1450   60.4550   73.6970 C   0  0  0  0  0  0  0  0  0  0  0  0
    1.8310   59.6520   73.9090 C   0  0  1  0  0  0  0  0  0  0  0  0
    0.6840   60.0570   72.9480 C   0  0  1  0  0  0  0  0  0  0  0  0
   -0.6500   59.6370   73.5670 C   0  0  0  0  0  0  0  0  0  0  0  0
   -0.6010   58.1950   74.0000 C   0  0  0  0  0  0  0  0  0  0  0  0
    0.5330   57.4820   74.1620 C   0  0  0  0  0  0  0  0  0  0  0  0
    1.9440   58.0880   73.9990 C   0  0  1  0  0  0  0  0  0  0  0  0
    2.6090   57.5140   72.7270 C   0  0  0  0  0  0  0  0  0  0  0  0
    2.7960   57.7140   75.2490 C   0  0  0  0  0  0  0  0  0  0  0  0
    2.7580   56.2310   75.6150 C   0  0  0  0  0  0  0  0  0  0  0  0
    1.3260   55.7340   75.7970 C   0  0  1  0  0  0  0  0  0  0  0  0
    0.4710   56.0250   74.5620 C   0  0  0  0  0  0  0  0  0  0  0  0
    2.8730   64.0530   70.6810 C   0  0  0  0  0  0  0  0  0  0  0  0
    2.4100   64.7790   69.8020 O   0  0  0  0  0  0  0  0  0  0  0  0
    4.3530   63.7580   70.7090 C   0  0  0  0  0  0  0  0  0  0  0  0
   -0.3230   65.6910   72.9380 N   0  0  0  0  0  0  0  0  0  0  0  0
    0.0350   64.7860   72.3090 C   0  0  0  0  0  0  0  0  0  0  0  0
    1.3430   54.3320   76.0600 O   0  0  0  0  0  0  0  0  0  0  0  0
    0.2232   63.8510   70.4655 H   0  0  0  0  0  0  0  0  0  0  0  0
   -1.0742   62.5783   72.7093 H   0  0  0  0  0  0  0  0  0  0  0  0
   -0.7789   61.7932   71.1748 H   0  0  0  0  0  0  0  0  0  0  0  0
    0.8877   61.8984   73.6900 H   0  0  0  0  0  0  0  0  0  0  0  0
    2.3997   63.7697   72.6268 H   0  0  0  0  0  0  0  0  0  0  0  0
    1.5851   60.1420   70.3727 H   0  0  0  0  0  0  0  0  0  0  0  0
    1.1163   61.7636   69.7584 H   0  0  0  0  0  0  0  0  0  0  0  0
    2.8428   61.2678   69.7584 H   0  0  0  0  0  0  0  0  0  0  0  0
    3.7274   60.4311   71.6304 H   0  0  0  0  0  0  0  0  0  0  0  0
    4.0112   62.0084   72.5445 H   0  0  0  0  0  0  0  0  0  0  0  0
    3.9833   59.7533   73.8188 H   0  0  0  0  0  0  0  0  0  0  0  0
    3.0999   61.2670   74.4376 H   0  0  0  0  0  0  0  0  0  0  0  0
    1.5720   59.9702   74.9296 H   0  0  0  0  0  0  0  0  0  0  0  0
    0.7225   59.5420   71.9767 H   0  0  0  0  0  0  0  0  0  0  0  0
   -0.8584   60.2706   74.4417 H   0  0  0  0  0  0  0  0  0  0  0  0
   -1.4438   59.7554   72.8147 H   0  0  0  0  0  0  0  0  0  0  0  0
   -1.5568   57.6877   74.1980 H   0  0  0  0  0  0  0  0  0  0  0  0
    3.4127   56.8203   73.0146 H   0  0  0  0  0  0  0  0  0  0  0  0
    1.8569   56.9768   72.1306 H   0  0  0  0  0  0  0  0  0  0  0  0
    3.0306   58.3365   72.1306 H   0  0  0  0  0  0  0  0  0  0  0  0
    3.8412   57.9929   75.0495 H   0  0  0  0  0  0  0  0  0  0  0  0
    2.3629   58.2597   76.1002 H   0  0  0  0  0  0  0  0  0  0  0  0
    3.2373   55.6525   74.8115 H   0  0  0  0  0  0  0  0  0  0  0  0
    3.2923   56.0976   76.5672 H   0  0  0  0  0  0  0  0  0  0  0  0
    0.8779   56.2691   76.6472 H   0  0  0  0  0  0  0  0  0  0  0  0
    0.8350   55.4109   73.7251 H   0  0  0  0  0  0  0  0  0  0  0  0
   -0.5739   55.7836   74.8069 H   0  0  0  0  0  0  0  0  0  0  0  0
    4.6937   63.6901   71.7527 H   0  0  0  0  0  0  0  0  0  0  0  0
    4.5464   62.8036   70.1973 H   0  0  0  0  0  0  0  0  0  0  0  0
    4.8975   64.5653   70.1973 H   0  0  0  0  0  0  0  0  0  0  0  0
    1.3448   54.1797   77.0382 H   0  0  0  0  0  0  0  0  0  0  0  0
  2  1  1  0
  3  2  1  0
  4  3  1  0
  5  4  1  0
  5  1  1  0
  4  6  1  6
  7  4  1  0
  8  7  1  0
  9  8  1  0
 10  9  1  0
 10  3  1  0
 11 10  1  0
 12 11  1  0
 13 12  2  0
 14 13  1  0
 14  9  1  0
 14 15  1  6
 16 14  1  0
 17 16  1  0
 18 17  1  0
 19 18  1  0
 19 13  1  0
 20  5  1  0
 21 20  2  0
 22 20  1  0
 24 23  3  0
 24  1  1  0
 25 18  1  0
  1 26  1  6
  2 27  1  0
  2 28  1  0
  3 29  1  1
  5 30  1  1
  6 31  1  0
  6 32  1  0
  6 33  1  0
  7 34  1  0
  7 35  1  0
  8 36  1  0
  8 37  1  0
  9 38  1  1
 10 39  1  6
 11 40  1  0
 11 41  1  0
 12 42  1  0
 15 43  1  0
 15 44  1  0
 15 45  1  0
 16 46  1  0
 16 47  1  0
 17 48  1  0
 17 49  1  0
 18 50  1  1
 19 51  1  0
 19 52  1  0
 22 53  1  0
 22 54  1  0
 22 55  1  0
 25 56  1  0
M  END
>  <score>  (7) 
-7.371

$$$$
=
     RDKit          3D

 56 59  0  0  0  0  0  0  0  0999 V2000
    1.5040   61.6180   72.6220 C   0  0  2  0  0  0  0  0  0  0  0  0
    0.4590   60.4800   72.7780 C   0  0  0  0  0  0  0  0  0  0  0  0
    1.2130   59.4420   73.5950 C   0  0  2  0  0  0  0  0  0  0  0  0
    2.6510   59.5000   73.0160 C   0  0  2  0  0  0  0  0  0  0  0  0
    2.8620   61.0360   73.1300 C   0  0  1  0  0  0  0  0  0  0  0  0
    2.7390   59.0350   71.5300 C   0  0  0  0  0  0  0  0  0  0  0  0
    3.6020   58.6040   73.8420 C   0  0  0  0  0  0  0  0  0  0  0  0
    2.9630   57.8670   75.0300 C   0  0  0  0  0  0  0  0  0  0  0  0
    1.5170   57.3270   74.8470 C   0  0  1  0  0  0  0  0  0  0  0  0
    0.7340   58.0050   73.6930 C   0  0  1  0  0  0  0  0  0  0  0  0
   -0.7640   57.8200   73.9370 C   0  0  0  0  0  0  0  0  0  0  0  0
   -1.0800   56.3750   74.2190 C   0  0  0  0  0  0  0  0  0  0  0  0
   -0.1660   55.4450   74.5660 C   0  0  0  0  0  0  0  0  0  0  0  0
    1.3260   55.7690   74.7990 C   0  0  1  0  0  0  0  0  0  0  0  0
    2.1720   55.1500   73.6640 C   0  0  0  0  0  0  0  0  0  0  0  0
    1.7610   55.1650   76.1670 C   0  0  0  0  0  0  0  0  0  0  0  0
    1.3720   53.6990   76.3590 C   0  0  0  0  0  0  0  0  0  0  0  0
   -0.1250   53.4840   76.1510 C   0  0  1  0  0  0  0  0  0  0  0  0
   -0.5830   54.0080   74.7880 C   0  0  0  0  0  0  0  0  0  0  0  0
    4.0880   61.6150   72.4220 C   0  0  0  0  0  0  0  0  0  0  0  0
    5.2240   61.5050   72.8830 O   0  0  0  0  0  0  0  0  0  0  0  0
    3.8620   62.4300   71.1720 C   0  0  0  0  0  0  0  0  0  0  0  0
    0.7760   63.7140   74.0370 N   0  0  0  0  0  0  0  0  0  0  0  0
    1.1110   62.7980   73.4120 C   0  0  0  0  0  0  0  0  0  0  0  0
   -0.4220   52.0930   76.2640 O   0  0  0  0  0  0  0  0  0  0  0  0
    1.5807   61.9492   71.5759 H   0  0  0  0  0  0  0  0  0  0  0  0
   -0.4348   60.8331   73.3133 H   0  0  0  0  0  0  0  0  0  0  0  0
    0.0884   60.0935   71.8171 H   0  0  0  0  0  0  0  0  0  0  0  0
    1.0689   59.7245   74.6483 H   0  0  0  0  0  0  0  0  0  0  0  0
    3.1062   61.3205   74.1641 H   0  0  0  0  0  0  0  0  0  0  0  0
    2.9434   57.9547   71.4953 H   0  0  0  0  0  0  0  0  0  0  0  0
    1.7853   59.2441   71.0233 H   0  0  0  0  0  0  0  0  0  0  0  0
    3.5503   59.5782   71.0233 H   0  0  0  0  0  0  0  0  0  0  0  0
    4.0267   57.8483   73.1649 H   0  0  0  0  0  0  0  0  0  0  0  0
    4.3487   59.2836   74.2786 H   0  0  0  0  0  0  0  0  0  0  0  0
    3.6073   57.0083   75.2699 H   0  0  0  0  0  0  0  0  0  0  0  0
    2.8795   58.6284   75.8195 H   0  0  0  0  0  0  0  0  0  0  0  0
    1.0733   57.6301   75.8068 H   0  0  0  0  0  0  0  0  0  0  0  0
    0.9206   57.5496   72.7092 H   0  0  0  0  0  0  0  0  0  0  0  0
   -1.0682   58.4316   74.7992 H   0  0  0  0  0  0  0  0  0  0  0  0
   -1.3117   58.1337   73.0361 H   0  0  0  0  0  0  0  0  0  0  0  0
   -2.1292   56.0552   74.1364 H   0  0  0  0  0  0  0  0  0  0  0  0
    2.9876   54.5532   74.0983 H   0  0  0  0  0  0  0  0  0  0  0  0
    1.5350   54.5032   73.0428 H   0  0  0  0  0  0  0  0  0  0  0  0
    2.5957   55.9529   73.0428 H   0  0  0  0  0  0  0  0  0  0  0  0
    2.8552   55.2444   76.2464 H   0  0  0  0  0  0  0  0  0  0  0  0
    1.2336   55.7357   76.9456 H   0  0  0  0  0  0  0  0  0  0  0  0
    1.9253   53.0847   75.6334 H   0  0  0  0  0  0  0  0  0  0  0  0
    1.6218   53.4085   77.3901 H   0  0  0  0  0  0  0  0  0  0  0  0
   -0.6672   54.0474   76.9247 H   0  0  0  0  0  0  0  0  0  0  0  0
   -0.1387   53.3830   73.9993 H   0  0  0  0  0  0  0  0  0  0  0  0
   -1.6817   53.9637   74.7578 H   0  0  0  0  0  0  0  0  0  0  0  0
    3.5776   63.4557   71.4495 H   0  0  0  0  0  0  0  0  0  0  0  0
    4.7873   62.4541   70.5777 H   0  0  0  0  0  0  0  0  0  0  0  0
    3.0564   61.9741   70.5777 H   0  0  0  0  0  0  0  0  0  0  0  0
   -0.4753   51.8436   77.2206 H   0  0  0  0  0  0  0  0  0  0  0  0
  2  1  1  0
  3  2  1  0
  4  3  1  0
  5  4  1  0
  5  1  1  0
  4  6  1  6
  7  4  1  0
  8  7  1  0
  9  8  1  0
 10  9  1  0
 10  3  1  0
 11 10  1  0
 12 11  1  0
 13 12  2  0
 14 13  1  0
 14  9  1  0
 14 15  1  6
 16 14  1  0
 17 16  1  0
 18 17  1  0
 19 18  1  0
 19 13  1  0
 20  5  1  0
 21 20  2  0
 22 20  1  0
 24 23  3  0
 24  1  1  0
 25 18  1  0
  1 26  1  6
  2 27  1  0
  2 28  1  0
  3 29  1  1
  5 30  1  1
  6 31  1  0
  6 32  1  0
  6 33  1  0
  7 34  1  0
  7 35  1  0
  8 36  1  0
  8 37  1  0
  9 38  1  1
 10 39  1  6
 11 40  1  0
 11 41  1  0
 12 42  1  0
 15 43  1  0
 15 44  1  0
 15 45  1  0
 16 46  1  0
 16 47  1  0
 17 48  1  0
 17 49  1  0
 18 50  1  1
 19 51  1  0
 19 52  1  0
 22 53  1  0
 22 54  1  0
 22 55  1  0
 25 56  1  0
M  END
>  <score>  (8) 
-7.331

$$$$
=
     RDKit          3D

 56 59  0  0  0  0  0  0  0  0999 V2000
    3.4010   61.3070   71.3510 C   0  0  2  0  0  0  0  0  0  0  0  0
    3.4790   60.3730   72.5900 C   0  0  0  0  0  0  0  0  0  0  0  0
    2.0140   60.1400   72.9260 C   0  0  2  0  0  0  0  0  0  0  0  0
    1.3580   61.5220   72.6700 C   0  0  2  0  0  0  0  0  0  0  0  0
    1.9090   61.7520   71.2340 C   0  0  1  0  0  0  0  0  0  0  0  0
    1.8590   62.6340   73.6430 C   0  0  0  0  0  0  0  0  0  0  0  0
   -0.1770   61.4270   72.8200 C   0  0  0  0  0  0  0  0  0  0  0  0
   -0.7300   60.0370   73.1730 C   0  0  0  0  0  0  0  0  0  0  0  0
    0.0990   59.1620   74.1540 C   0  0  1  0  0  0  0  0  0  0  0  0
    1.5860   59.5870   74.2730 C   0  0  1  0  0  0  0  0  0  0  0  0
    2.3980   58.3990   74.7920 C   0  0  0  0  0  0  0  0  0  0  0  0
    1.7550   57.8150   76.0220 C   0  0  0  0  0  0  0  0  0  0  0  0
    0.4830   58.0500   76.4060 C   0  0  0  0  0  0  0  0  0  0  0  0
   -0.5100   58.8930   75.5760 C   0  0  1  0  0  0  0  0  0  0  0  0
   -0.7960   60.2220   76.3090 C   0  0  0  0  0  0  0  0  0  0  0  0
   -1.8350   58.0880   75.4140 C   0  0  0  0  0  0  0  0  0  0  0  0
   -2.3890   57.5210   76.7200 C   0  0  0  0  0  0  0  0  0  0  0  0
   -1.3520   56.6680   77.4470 C   0  0  1  0  0  0  0  0  0  0  0  0
   -0.0550   57.4440   77.6840 C   0  0  0  0  0  0  0  0  0  0  0  0
    1.7240   63.1520   70.6450 C   0  0  0  0  0  0  0  0  0  0  0  0
    0.6670   63.5100   70.1260 O   0  0  0  0  0  0  0  0  0  0  0  0
    2.9200   64.0720   70.6210 C   0  0  0  0  0  0  0  0  0  0  0  0
    4.1800   60.0630   69.1670 N   0  0  0  0  0  0  0  0  0  0  0  0
    3.8330   60.5960   70.1350 C   0  0  0  0  0  0  0  0  0  0  0  0
   -1.8920   56.2280   78.6920 O   0  0  0  0  0  0  0  0  0  0  0  0
    4.0667   62.1756   71.4627 H   0  0  0  0  0  0  0  0  0  0  0  0
    3.9845   59.4278   72.3430 H   0  0  0  0  0  0  0  0  0  0  0  0
    4.0553   60.8009   73.4236 H   0  0  0  0  0  0  0  0  0  0  0  0
    1.6924   59.2935   72.3015 H   0  0  0  0  0  0  0  0  0  0  0  0
    1.3322   61.1732   70.4976 H   0  0  0  0  0  0  0  0  0  0  0  0
    1.7111   62.3057   74.6824 H   0  0  0  0  0  0  0  0  0  0  0  0
    2.9284   62.8212   73.4663 H   0  0  0  0  0  0  0  0  0  0  0  0
    1.2907   63.5591   73.4663 H   0  0  0  0  0  0  0  0  0  0  0  0
   -0.4821   62.1234   73.6149 H   0  0  0  0  0  0  0  0  0  0  0  0
   -0.5895   61.6699   71.8296 H   0  0  0  0  0  0  0  0  0  0  0  0
   -1.7242   60.1821   73.6208 H   0  0  0  0  0  0  0  0  0  0  0  0
   -0.7176   59.4815   72.2237 H   0  0  0  0  0  0  0  0  0  0  0  0
    0.0444   58.1903   73.6414 H   0  0  0  0  0  0  0  0  0  0  0  0
    1.7567   60.3904   75.0047 H   0  0  0  0  0  0  0  0  0  0  0  0
    2.4498   57.6272   74.0100 H   0  0  0  0  0  0  0  0  0  0  0  0
    3.4090   58.7464   75.0511 H   0  0  0  0  0  0  0  0  0  0  0  0
    2.3649   57.1503   76.6515 H   0  0  0  0  0  0  0  0  0  0  0  0
   -0.7603   60.0563   77.3959 H   0  0  0  0  0  0  0  0  0  0  0  0
   -0.0376   60.9671   76.0266 H   0  0  0  0  0  0  0  0  0  0  0  0
   -1.7937   60.5892   76.0266 H   0  0  0  0  0  0  0  0  0  0  0  0
   -2.5931   58.7560   74.9793 H   0  0  0  0  0  0  0  0  0  0  0  0
   -1.6041   57.2271   74.7693 H   0  0  0  0  0  0  0  0  0  0  0  0
   -2.6869   58.3545   77.3731 H   0  0  0  0  0  0  0  0  0  0  0  0
   -3.2520   56.8827   76.4793 H   0  0  0  0  0  0  0  0  0  0  0  0
   -1.1115   55.8002   76.8152 H   0  0  0  0  0  0  0  0  0  0  0  0
   -0.2505   58.2512   78.4053 H   0  0  0  0  0  0  0  0  0  0  0  0
    0.6971   56.7401   78.0699 H   0  0  0  0  0  0  0  0  0  0  0  0
    3.2237   64.3056   71.6521 H   0  0  0  0  0  0  0  0  0  0  0  0
    3.7517   63.5786   70.0967 H   0  0  0  0  0  0  0  0  0  0  0  0
    2.6564   65.0024   70.0967 H   0  0  0  0  0  0  0  0  0  0  0  0
   -1.3854   56.6408   79.4357 H   0  0  0  0  0  0  0  0  0  0  0  0
  2  1  1  0
  3  2  1  0
  4  3  1  0
  5  4  1  0
  5  1  1  0
  4  6  1  1
  7  4  1  0
  8  7  1  0
  9  8  1  0
 10  9  1  0
 10  3  1  0
 11 10  1  0
 12 11  1  0
 13 12  2  0
 14 13  1  0
 14  9  1  0
 14 15  1  1
 16 14  1  0
 17 16  1  0
 18 17  1  0
 19 18  1  0
 19 13  1  0
 20  5  1  0
 21 20  2  0
 22 20  1  0
 24 23  3  0
 24  1  1  0
 25 18  1  0
  1 26  1  1
  2 27  1  0
  2 28  1  0
  3 29  1  6
  5 30  1  6
  6 31  1  0
  6 32  1  0
  6 33  1  0
  7 34  1  0
  7 35  1  0
  8 36  1  0
  8 37  1  0
  9 38  1  6
 10 39  1  1
 11 40  1  0
 11 41  1  0
 12 42  1  0
 15 43  1  0
 15 44  1  0
 15 45  1  0
 16 46  1  0
 16 47  1  0
 17 48  1  0
 17 49  1  0
 18 50  1  6
 19 51  1  0
 19 52  1  0
 22 53  1  0
 22 54  1  0
 22 55  1  0
 25 56  1  0
M  END
>  <score>  (9) 
-7.04

$$$$
