=
     RDKit          3D

 13 12  0  0  0  0  0  0  0  0999 V2000
    5.9080   71.2000   68.4500 C   0  0  1  0  0  0  0  0  0  0  0  0
    7.2250   70.9800   69.1830 C   0  0  0  0  0  0  0  0  0  0  0  0
    5.7940   72.5780   68.0950 O   0  0  0  0  0  0  0  0  0  0  0  0
    5.8060   70.3490   67.1820 C   0  0  0  0  0  0  0  0  0  0  0  0
    6.4010   71.0130   66.0730 O   0  0  0  0  0  0  0  0  0  0  0  0
    5.0937   70.8997   69.1258 H   0  0  0  0  0  0  0  0  0  0  0  0
    7.0498   71.0093   70.2686 H   0  0  0  0  0  0  0  0  0  0  0  0
    7.6402   70.0001   68.9049 H   0  0  0  0  0  0  0  0  0  0  0  0
    7.9361   71.7718   68.9049 H   0  0  0  0  0  0  0  0  0  0  0  0
    5.7485   73.1279   68.9170 H   0  0  0  0  0  0  0  0  0  0  0  0
    6.3230   69.3924   67.3482 H   0  0  0  0  0  0  0  0  0  0  0  0
    4.7424   70.1785   66.9590 H   0  0  0  0  0  0  0  0  0  0  0  0
    7.0244   71.7087   66.4006 H   0  0  0  0  0  0  0  0  0  0  0  0
  2  1  1  0
  3  1  1  0
  4  1  1  0
  5  4  1  0
  1  6  1  1
  2  7  1  0
  2  8  1  0
  2  9  1  0
  3 10  1  0
  4 11  1  0
  4 12  1  0
  5 13  1  0
M  END
>  <score>  (1) 
-3.925

$$$$
=
     RDKit          3D

 13 12  0  0  0  0  0  0  0  0999 V2000
    6.0020   70.3420   67.2510 C   0  0  1  0  0  0  0  0  0  0  0  0
    4.5490   69.9030   67.1270 C   0  0  0  0  0  0  0  0  0  0  0  0
    6.4000   70.9920   66.0440 O   0  0  0  0  0  0  0  0  0  0  0  0
    6.2150   71.3010   68.4260 C   0  0  0  0  0  0  0  0  0  0  0  0
    5.7500   72.6080   68.1080 O   0  0  0  0  0  0  0  0  0  0  0  0
    6.6096   69.4431   67.4320 H   0  0  0  0  0  0  0  0  0  0  0  0
    4.1183   69.7729   68.1308 H   0  0  0  0  0  0  0  0  0  0  0  0
    3.9798   70.6693   66.5803 H   0  0  0  0  0  0  0  0  0  0  0  0
    4.4993   68.9498   66.5803 H   0  0  0  0  0  0  0  0  0  0  0  0
    6.9041   71.8153   66.2633 H   0  0  0  0  0  0  0  0  0  0  0  0
    5.6638   70.9260   69.3009 H   0  0  0  0  0  0  0  0  0  0  0  0
    7.2919   71.3553   68.6434 H   0  0  0  0  0  0  0  0  0  0  0  0
    5.5723   73.1075   68.9441 H   0  0  0  0  0  0  0  0  0  0  0  0
  2  1  1  0
  3  1  1  0
  4  1  1  0
  5  4  1  0
  1  6  1  1
  2  7  1  0
  2  8  1  0
  2  9  1  0
  3 10  1  0
  4 11  1  0
  4 12  1  0
  5 13  1  0
M  END
>  <score>  (2) 
-3.821

$$$$
=
     RDKit          3D

 13 12  0  0  0  0  0  0  0  0999 V2000
    5.8250   71.1960   68.4540 C   0  0  1  0  0  0  0  0  0  0  0  0
    6.6630   70.4870   67.3980 C   0  0  0  0  0  0  0  0  0  0  0  0
    5.7220   72.5800   68.1180 O   0  0  0  0  0  0  0  0  0  0  0  0
    4.4180   70.6050   68.5650 C   0  0  0  0  0  0  0  0  0  0  0  0
    3.8780   70.8150   69.8650 O   0  0  0  0  0  0  0  0  0  0  0  0
    6.3255   71.0628   69.4244 H   0  0  0  0  0  0  0  0  0  0  0  0
    7.4136   69.8519   67.8912 H   0  0  0  0  0  0  0  0  0  0  0  0
    6.0102   69.8629   66.7701 H   0  0  0  0  0  0  0  0  0  0  0  0
    7.1704   71.2342   66.7701 H   0  0  0  0  0  0  0  0  0  0  0  0
    5.6819   73.1189   68.9475 H   0  0  0  0  0  0  0  0  0  0  0  0
    3.7656   71.0873   67.8222 H   0  0  0  0  0  0  0  0  0  0  0  0
    4.4770   69.5222   68.3806 H   0  0  0  0  0  0  0  0  0  0  0  0
    4.5474   70.5547   70.5464 H   0  0  0  0  0  0  0  0  0  0  0  0
  2  1  1  0
  3  1  1  0
  4  1  1  0
  5  4  1  0
  1  6  1  1
  2  7  1  0
  2  8  1  0
  2  9  1  0
  3 10  1  0
  4 11  1  0
  4 12  1  0
  5 13  1  0
M  END
>  <score>  (3) 
-3.715

$$$$
=
     RDKit          3D

 13 12  0  0  0  0  0  0  0  0999 V2000
    3.4200   59.1950   70.4280 C   0  0  1  0  0  0  0  0  0  0  0  0
    4.4520   60.0850   71.1090 C   0  0  0  0  0  0  0  0  0  0  0  0
    3.8740   58.8740   69.1140 O   0  0  0  0  0  0  0  0  0  0  0  0
    3.1800   57.8970   71.2030 C   0  0  0  0  0  0  0  0  0  0  0  0
    3.7120   56.7780   70.5020 O   0  0  0  0  0  0  0  0  0  0  0  0
    2.4701   59.7485   70.3913 H   0  0  0  0  0  0  0  0  0  0  0  0
    4.3493   59.9964   72.2006 H   0  0  0  0  0  0  0  0  0  0  0  0
    5.4625   59.7704   70.8091 H   0  0  0  0  0  0  0  0  0  0  0  0
    4.2894   61.1307   70.8091 H   0  0  0  0  0  0  0  0  0  0  0  0
    4.6809   58.3035   69.1738 H   0  0  0  0  0  0  0  0  0  0  0  0
    3.6672   57.9700   72.1865 H   0  0  0  0  0  0  0  0  0  0  0  0
    2.0956   57.7540   71.3196 H   0  0  0  0  0  0  0  0  0  0  0  0
    4.0327   56.1035   71.1519 H   0  0  0  0  0  0  0  0  0  0  0  0
  2  1  1  0
  3  1  1  0
  4  1  1  0
  5  4  1  0
  1  6  1  6
  2  7  1  0
  2  8  1  0
  2  9  1  0
  3 10  1  0
  4 11  1  0
  4 12  1  0
  5 13  1  0
M  END
>  <score>  (4) 
-3.437

$$$$
=
     RDKit          3D

 13 12  0  0  0  0  0  0  0  0999 V2000
   -2.1100   67.4750   66.8940 C   0  0  1  0  0  0  0  0  0  0  0  0
   -1.3890   66.8580   68.0860 C   0  0  0  0  0  0  0  0  0  0  0  0
   -3.3460   68.0370   67.3350 O   0  0  0  0  0  0  0  0  0  0  0  0
   -1.2770   68.5690   66.2220 C   0  0  0  0  0  0  0  0  0  0  0  0
   -1.8170   69.8580   66.4900 O   0  0  0  0  0  0  0  0  0  0  0  0
   -2.2818   66.6782   66.1554 H   0  0  0  0  0  0  0  0  0  0  0  0
   -1.8319   67.2371   69.0188 H   0  0  0  0  0  0  0  0  0  0  0  0
   -1.4912   65.7634   68.0499 H   0  0  0  0  0  0  0  0  0  0  0  0
   -0.3233   67.1281   68.0499 H   0  0  0  0  0  0  0  0  0  0  0  0
   -3.3692   68.0476   68.3247 H   0  0  0  0  0  0  0  0  0  0  0  0
   -0.2470   68.5236   66.6055 H   0  0  0  0  0  0  0  0  0  0  0  0
   -1.2910   68.4022   65.1348 H   0  0  0  0  0  0  0  0  0  0  0  0
   -1.8743   69.9948   67.4688 H   0  0  0  0  0  0  0  0  0  0  0  0
  2  1  1  0
  3  1  1  0
  4  1  1  0
  5  4  1  0
  1  6  1  6
  2  7  1  0
  2  8  1  0
  2  9  1  0
  3 10  1  0
  4 11  1  0
  4 12  1  0
  5 13  1  0
M  END
>  <score>  (5) 
-3.418

$$$$
=
     RDKit          3D

 13 12  0  0  0  0  0  0  0  0999 V2000
    4.7980   64.2390   64.1970 C   0  0  1  0  0  0  0  0  0  0  0  0
    3.8100   63.7420   65.2440 C   0  0  0  0  0  0  0  0  0  0  0  0
    4.7180   63.4020   63.0430 O   0  0  0  0  0  0  0  0  0  0  0  0
    4.5190   65.6850   63.7830 C   0  0  0  0  0  0  0  0  0  0  0  0
    4.2700   65.7770   62.3850 O   0  0  0  0  0  0  0  0  0  0  0  0
    5.8038   64.2019   64.6407 H   0  0  0  0  0  0  0  0  0  0  0  0
    4.2091   63.9427   66.2492 H   0  0  0  0  0  0  0  0  0  0  0  0
    2.8500   64.2645   65.1195 H   0  0  0  0  0  0  0  0  0  0  0  0
    3.6573   62.6598   65.1195 H   0  0  0  0  0  0  0  0  0  0  0  0
    4.6277   62.4576   63.3259 H   0  0  0  0  0  0  0  0  0  0  0  0
    3.6381   66.0520   64.3300 H   0  0  0  0  0  0  0  0  0  0  0  0
    5.4030   66.2944   64.0220 H   0  0  0  0  0  0  0  0  0  0  0  0
    3.3521   66.1161   62.2349 H   0  0  0  0  0  0  0  0  0  0  0  0
  2  1  1  0
  3  1  1  0
  4  1  1  0
  5  4  1  0
  1  6  1  1
  2  7  1  0
  2  8  1  0
  2  9  1  0
  3 10  1  0
  4 11  1  0
  4 12  1  0
  5 13  1  0
M  END
>  <score>  (6) 
-3.39

$$$$
=
     RDKit          3D

 13 12  0  0  0  0  0  0  0  0999 V2000
   -0.9940   67.8450   66.6210 C   0  0  1  0  0  0  0  0  0  0  0  0
   -0.2470   68.9760   67.3150 C   0  0  0  0  0  0  0  0  0  0  0  0
   -0.0630   66.8270   66.2520 O   0  0  0  0  0  0  0  0  0  0  0  0
   -2.0720   67.2320   67.5170 C   0  0  0  0  0  0  0  0  0  0  0  0
   -3.2670   68.0040   67.4770 O   0  0  0  0  0  0  0  0  0  0  0  0
   -1.4902   68.2652   65.7337 H   0  0  0  0  0  0  0  0  0  0  0  0
   -0.3276   68.8539   68.4052 H   0  0  0  0  0  0  0  0  0  0  0  0
    0.8126   68.9505   67.0205 H   0  0  0  0  0  0  0  0  0  0  0  0
   -0.6863   69.9405   67.0205 H   0  0  0  0  0  0  0  0  0  0  0  0
    0.3149   66.4138   67.0684 H   0  0  0  0  0  0  0  0  0  0  0  0
   -2.2910   66.2115   67.1698 H   0  0  0  0  0  0  0  0  0  0  0  0
   -1.6999   67.2149   68.5520 H   0  0  0  0  0  0  0  0  0  0  0  0
   -3.5661   68.1972   68.4007 H   0  0  0  0  0  0  0  0  0  0  0  0
  2  1  1  0
  3  1  1  0
  4  1  1  0
  5  4  1  0
  1  6  1  6
  2  7  1  0
  2  8  1  0
  2  9  1  0
  3 10  1  0
  4 11  1  0
  4 12  1  0
  5 13  1  0
M  END
>  <score>  (7) 
-3.336

$$$$
=
     RDKit          3D

 13 12  0  0  0  0  0  0  0  0999 V2000
    4.7510   69.0040   62.2650 C   0  0  1  0  0  0  0  0  0  0  0  0
    4.5910   69.2440   63.7610 C   0  0  0  0  0  0  0  0  0  0  0  0
    5.7010   67.9590   62.0570 O   0  0  0  0  0  0  0  0  0  0  0  0
    3.4290   68.6150   61.6000 C   0  0  0  0  0  0  0  0  0  0  0  0
    3.4330   68.9570   60.2180 O   0  0  0  0  0  0  0  0  0  0  0  0
    5.0953   69.9442   61.8094 H   0  0  0  0  0  0  0  0  0  0  0  0
    5.1174   68.4545   64.3174 H   0  0  0  0  0  0  0  0  0  0  0  0
    5.0174   70.2236   64.0229 H   0  0  0  0  0  0  0  0  0  0  0  0
    3.5228   69.2272   64.0229 H   0  0  0  0  0  0  0  0  0  0  0  0
    6.0121   67.6168   62.9323 H   0  0  0  0  0  0  0  0  0  0  0  0
    3.2809   67.5298   61.7016 H   0  0  0  0  0  0  0  0  0  0  0  0
    2.6134   69.1632   62.0943 H   0  0  0  0  0  0  0  0  0  0  0  0
    3.4445   69.9423   60.1219 H   0  0  0  0  0  0  0  0  0  0  0  0
  2  1  1  0
  3  1  1  0
  4  1  1  0
  5  4  1  0
  1  6  1  6
  2  7  1  0
  2  8  1  0
  2  9  1  0
  3 10  1  0
  4 11  1  0
  4 12  1  0
  5 13  1  0
M  END
>  <score>  (8) 
-3.298

$$$$
=
     RDKit          3D

 13 12  0  0  0  0  0  0  0  0999 V2000
    3.4270   68.3660   61.5870 C   0  0  1  0  0  0  0  0  0  0  0  0
    2.0630   68.6900   62.1830 C   0  0  0  0  0  0  0  0  0  0  0  0
    3.4930   68.8870   60.2600 O   0  0  0  0  0  0  0  0  0  0  0  0
    4.5710   68.9590   62.4130 C   0  0  0  0  0  0  0  0  0  0  0  0
    5.8050   68.3180   62.1080 O   0  0  0  0  0  0  0  0  0  0  0  0
    3.5423   67.2721   61.5858 H   0  0  0  0  0  0  0  0  0  0  0  0
    2.1295   68.6742   63.2809 H   0  0  0  0  0  0  0  0  0  0  0  0
    1.7449   69.6887   61.8492 H   0  0  0  0  0  0  0  0  0  0  0  0
    1.3297   67.9410   61.8492 H   0  0  0  0  0  0  0  0  0  0  0  0
    3.6173   69.8685   60.2966 H   0  0  0  0  0  0  0  0  0  0  0  0
    4.6580   70.0324   62.1888 H   0  0  0  0  0  0  0  0  0  0  0  0
    4.3500   68.8052   63.4795 H   0  0  0  0  0  0  0  0  0  0  0  0
    6.2685   68.0772   62.9490 H   0  0  0  0  0  0  0  0  0  0  0  0
  2  1  1  0
  3  1  1  0
  4  1  1  0
  5  4  1  0
  1  6  1  6
  2  7  1  0
  2  8  1  0
  2  9  1  0
  3 10  1  0
  4 11  1  0
  4 12  1  0
  5 13  1  0
M  END
>  <score>  (9) 
-3.228

$$$$
