=
     RDKit          3D

119126  0  0  0  0  0  0  0  0999 V2000
    0.8680   62.7530   70.9850 C   0  0  1  0  0  0  0  0  0  0  0  0
   -0.1250   63.8450   71.3740 C   0  0  0  0  0  0  0  0  0  0  0  0
    0.6080   65.1630   71.5810 C   0  0  1  0  0  0  0  0  0  0  0  0
    1.3980   65.5380   70.3170 C   0  0  1  0  0  0  0  0  0  0  0  0
    2.3290   64.3800   69.9100 C   0  0  2  0  0  0  0  0  0  0  0  0
    1.6510   63.1160   69.8490 O   0  0  0  0  0  0  0  0  0  0  0  0
    3.5970   64.3060   70.7570 C   0  0  0  0  0  0  0  0  0  0  0  0
   -0.3380   66.1730   71.9440 O   0  0  0  0  0  0  0  0  0  0  0  0
    1.7140   62.4290   72.0870 O   0  0  0  0  0  0  0  0  0  0  0  0
    0.1840   56.3530   77.7110 C   0  0  1  0  0  0  0  0  0  0  0  0
   -1.3580   56.3270   77.7240 C   0  0  0  0  0  0  0  0  0  0  0  0
   -1.8170   57.7870   77.7250 C   0  0  0  0  0  0  0  0  0  0  0  0
   -0.5340   58.6390   77.6440 C   0  0  1  0  0  0  0  0  0  0  0  0
    0.5400   57.7350   78.3610 C   0  0  1  0  0  0  0  0  0  0  0  0
    0.2840   57.7240   79.9000 C   0  0  0  0  0  0  0  0  0  0  0  0
    2.0120   58.1510   78.0530 C   0  0  1  0  0  0  0  0  0  0  0  0
    2.1350   59.4140   77.1980 C   0  0  0  0  0  0  0  0  0  0  0  0
    1.3460   59.2170   75.9040 C   0  0  1  0  0  0  0  0  0  0  0  0
   -0.1720   59.1480   76.2030 C   0  0  1  0  0  0  0  0  0  0  0  0
   -0.8820   58.4860   75.0120 C   0  0  0  0  0  0  0  0  0  0  0  0
   -0.1750   58.7220   73.6760 C   0  0  0  0  0  0  0  0  0  0  0  0
    0.6020   60.0540   73.5810 C   0  0  1  0  0  0  0  0  0  0  0  0
    1.6390   60.2510   74.7530 C   0  0  1  0  0  0  0  0  0  0  0  0
    1.5410   61.6970   75.3090 C   0  0  0  0  0  0  0  0  0  0  0  0
    3.0750   60.0410   74.2040 C   0  0  0  0  0  0  0  0  0  0  0  0
    3.4400   60.9810   73.0470 C   0  0  0  0  0  0  0  0  0  0  0  0
    2.3330   61.1430   71.9980 C   0  0  1  0  0  0  0  0  0  0  0  0
    1.2390   60.0970   72.1680 C   0  0  0  0  0  0  0  0  0  0  0  0
    2.5140   52.8700   80.1910 O   0  0  0  0  0  0  0  0  0  0  0  0
    1.8930   53.4310   79.3080 C   0  0  0  0  0  0  0  0  0  0  0  0
    1.5250   52.8830   78.1210 O   0  0  0  0  0  0  0  0  0  0  0  0
    0.8180   53.8570   77.3580 C   0  0  0  0  0  0  0  0  0  0  0  0
    0.8000   55.0730   78.2120 C   0  0  0  0  0  0  0  0  0  0  0  0
    1.4380   54.8200   79.3540 C   0  0  0  0  0  0  0  0  0  0  0  0
    2.7850   58.3210   79.2420 O   0  0  0  0  0  0  0  0  0  0  0  0
   -0.7450   59.8210   78.4340 O   0  0  0  0  0  0  0  0  0  0  0  0
    0.4660   65.7390   69.2310 O   0  0  0  0  0  0  0  0  0  0  0  0
    0.9050   66.6920   68.2710 C   0  0  1  0  0  0  0  0  0  0  0  0
   -0.3270   67.2090   67.5260 C   0  0  0  0  0  0  0  0  0  0  0  0
   -0.1420   68.6610   67.0870 C   0  0  1  0  0  0  0  0  0  0  0  0
    1.3340   68.9380   66.7460 C   0  0  1  0  0  0  0  0  0  0  0  0
    2.1750   68.6970   68.0250 C   0  0  2  0  0  0  0  0  0  0  0  0
    1.5420   67.7780   68.9390 O   0  0  0  0  0  0  0  0  0  0  0  0
    2.3950   69.9900   68.8020 C   0  0  0  0  0  0  0  0  0  0  0  0
   -1.0010   68.9650   65.9910 O   0  0  0  0  0  0  0  0  0  0  0  0
    1.8050   67.9880   65.7660 O   0  0  0  0  0  0  0  0  0  0  0  0
    2.2340   68.5620   64.5370 C   0  0  1  0  0  0  0  0  0  0  0  0
    3.5540   69.3050   64.7220 C   0  0  0  0  0  0  0  0  0  0  0  0
    4.6900   68.3230   64.9820 C   0  0  1  0  0  0  0  0  0  0  0  0
    4.7440   67.2480   63.8910 C   0  0  1  0  0  0  0  0  0  0  0  0
    3.3790   66.5740   63.7010 C   0  0  2  0  0  0  0  0  0  0  0  0
    2.3450   67.5540   63.5250 O   0  0  0  0  0  0  0  0  0  0  0  0
    3.0480   65.5550   64.7870 C   0  0  0  0  0  0  0  0  0  0  0  0
    5.9250   69.0460   65.0060 O   0  0  0  0  0  0  0  0  0  0  0  0
    5.1380   67.8990   62.6630 O   0  0  0  0  0  0  0  0  0  0  0  0
    0.2806   61.8650   70.7087 H   0  0  0  0  0  0  0  0  0  0  0  0
   -0.8690   63.9636   70.5725 H   0  0  0  0  0  0  0  0  0  0  0  0
   -0.6281   63.5599   72.3097 H   0  0  0  0  0  0  0  0  0  0  0  0
    1.3375   65.0654   72.3985 H   0  0  0  0  0  0  0  0  0  0  0  0
    1.9854   66.4452   70.5217 H   0  0  0  0  0  0  0  0  0  0  0  0
    2.6536   64.6139   68.8853 H   0  0  0  0  0  0  0  0  0  0  0  0
    3.3271   64.3217   71.8233 H   0  0  0  0  0  0  0  0  0  0  0  0
    4.1364   63.3748   70.5290 H   0  0  0  0  0  0  0  0  0  0  0  0
    4.2411   65.1681   70.5290 H   0  0  0  0  0  0  0  0  0  0  0  0
   -0.3943   66.2331   72.9306 H   0  0  0  0  0  0  0  0  0  0  0  0
    0.6612   56.3338   76.7201 H   0  0  0  0  0  0  0  0  0  0  0  0
   -1.7369   55.8101   76.8300 H   0  0  0  0  0  0  0  0  0  0  0  0
   -1.7395   55.7894   78.6046 H   0  0  0  0  0  0  0  0  0  0  0  0
   -2.4621   57.9849   76.8563 H   0  0  0  0  0  0  0  0  0  0  0  0
   -2.4005   58.0241   78.6269 H   0  0  0  0  0  0  0  0  0  0  0  0
    1.2459   57.7653   80.4320 H   0  0  0  0  0  0  0  0  0  0  0  0
   -0.3258   58.5968   80.1765 H   0  0  0  0  0  0  0  0  0  0  0  0
   -0.2486   56.8021   80.1765 H   0  0  0  0  0  0  0  0  0  0  0  0
    2.4116   57.3094   77.4681 H   0  0  0  0  0  0  0  0  0  0  0  0
    1.7290   60.2743   77.7503 H   0  0  0  0  0  0  0  0  0  0  0  0
    3.1930   59.6027   76.9634 H   0  0  0  0  0  0  0  0  0  0  0  0
    1.7058   58.2575   75.5041 H   0  0  0  0  0  0  0  0  0  0  0  0
   -0.5839   60.1654   76.2756 H   0  0  0  0  0  0  0  0  0  0  0  0
   -0.9313   57.4023   75.1938 H   0  0  0  0  0  0  0  0  0  0  0  0
   -1.8808   58.9404   74.9357 H   0  0  0  0  0  0  0  0  0  0  0  0
    0.5364   57.8986   73.5151 H   0  0  0  0  0  0  0  0  0  0  0  0
   -0.9646   58.7687   72.9116 H   0  0  0  0  0  0  0  0  0  0  0  0
   -0.0788   60.9084   73.7095 H   0  0  0  0  0  0  0  0  0  0  0  0
    1.5430   61.6679   76.4086 H   0  0  0  0  0  0  0  0  0  0  0  0
    2.4014   62.2846   74.9562 H   0  0  0  0  0  0  0  0  0  0  0  0
    0.6092   62.1631   74.9562 H   0  0  0  0  0  0  0  0  0  0  0  0
    3.7879   60.2084   75.0248 H   0  0  0  0  0  0  0  0  0  0  0  0
    3.1201   59.0152   73.8095 H   0  0  0  0  0  0  0  0  0  0  0  0
    3.6665   61.9725   73.4660 H   0  0  0  0  0  0  0  0  0  0  0  0
    4.3011   60.5302   72.5320 H   0  0  0  0  0  0  0  0  0  0  0  0
    2.8223   61.0211   71.0204 H   0  0  0  0  0  0  0  0  0  0  0  0
    0.4434   60.3109   71.4392 H   0  0  0  0  0  0  0  0  0  0  0  0
    1.7159   59.1183   72.0108 H   0  0  0  0  0  0  0  0  0  0  0  0
    1.3381   54.0578   76.4097 H   0  0  0  0  0  0  0  0  0  0  0  0
   -0.1958   53.5208   77.0952 H   0  0  0  0  0  0  0  0  0  0  0  0
    1.5942   55.5277   80.1815 H   0  0  0  0  0  0  0  0  0  0  0  0
    2.2047   58.1934   80.0339 H   0  0  0  0  0  0  0  0  0  0  0  0
   -0.7033   59.5873   79.3951 H   0  0  0  0  0  0  0  0  0  0  0  0
    1.6174   66.2330   67.5697 H   0  0  0  0  0  0  0  0  0  0  0  0
   -0.4960   66.5845   66.6364 H   0  0  0  0  0  0  0  0  0  0  0  0
   -1.1901   67.1593   68.2062 H   0  0  0  0  0  0  0  0  0  0  0  0
   -0.4204   69.3218   67.9211 H   0  0  0  0  0  0  0  0  0  0  0  0
    1.4266   69.9658   66.3652 H   0  0  0  0  0  0  0  0  0  0  0  0
    3.1267   68.2803   67.6636 H   0  0  0  0  0  0  0  0  0  0  0  0
    2.3592   69.7799   69.8812 H   0  0  0  0  0  0  0  0  0  0  0  0
    3.3777   70.4109   68.5428 H   0  0  0  0  0  0  0  0  0  0  0  0
    1.6068   70.7122   68.5428 H   0  0  0  0  0  0  0  0  0  0  0  0
   -1.8765   69.2748   66.3340 H   0  0  0  0  0  0  0  0  0  0  0  0
    1.4795   69.2921   64.2089 H   0  0  0  0  0  0  0  0  0  0  0  0
    3.7753   69.8811   63.8114 H   0  0  0  0  0  0  0  0  0  0  0  0
    3.4634   69.9795   65.5862 H   0  0  0  0  0  0  0  0  0  0  0  0
    4.5198   67.8234   65.9471 H   0  0  0  0  0  0  0  0  0  0  0  0
    5.4607   66.4648   64.1789 H   0  0  0  0  0  0  0  0  0  0  0  0
    3.4408   65.9841   62.7746 H   0  0  0  0  0  0  0  0  0  0  0  0
    3.1965   66.0122   65.7764 H   0  0  0  0  0  0  0  0  0  0  0  0
    2.0002   65.2365   64.6838 H   0  0  0  0  0  0  0  0  0  0  0  0
    3.7086   64.6815   64.6838 H   0  0  0  0  0  0  0  0  0  0  0  0
    6.1962   69.2048   65.9448 H   0  0  0  0  0  0  0  0  0  0  0  0
    5.6388   68.7265   62.8741 H   0  0  0  0  0  0  0  0  0  0  0  0
  2  1  1  0
  3  2  1  0
  4  3  1  0
  5  4  1  0
  6  5  1  0
  6  1  1  0
  7  5  1  0
  8  3  1  0
  9  1  1  0
 11 10  1  0
 12 11  1  0
 13 12  1  0
 14 13  1  0
 14 10  1  0
 14 15  1  1
 16 14  1  0
 17 16  1  0
 18 17  1  0
 19 18  1  0
 19 13  1  0
 20 19  1  0
 21 20  1  0
 22 21  1  0
 23 18  1  0
 23 22  1  0
 23 24  1  1
 25 23  1  0
 26 25  1  0
 27 26  1  0
 27  9  1  0
 28 27  1  0
 28 22  1  0
 30 29  2  0
 31 30  1  0
 32 31  1  0
 33 32  1  0
 33 10  1  0
 34 30  1  0
 34 33  2  0
 35 16  1  0
 13 36  1  1
 37  4  1  0
 38 37  1  0
 39 38  1  0
 40 39  1  0
 41 40  1  0
 42 41  1  0
 43 42  1  0
 43 38  1  0
 44 42  1  0
 45 40  1  0
 46 41  1  0
 47 46  1  0
 48 47  1  0
 49 48  1  0
 50 49  1  0
 51 50  1  0
 52 51  1  0
 52 47  1  0
 53 51  1  0
 54 49  1  0
 55 50  1  0
  1 56  1  6
  2 57  1  0
  2 58  1  0
  3 59  1  1
  4 60  1  1
  5 61  1  6
  7 62  1  0
  7 63  1  0
  7 64  1  0
  8 65  1  0
 10 66  1  6
 11 67  1  0
 11 68  1  0
 12 69  1  0
 12 70  1  0
 15 71  1  0
 15 72  1  0
 15 73  1  0
 16 74  1  6
 17 75  1  0
 17 76  1  0
 18 77  1  6
 19 78  1  1
 20 79  1  0
 20 80  1  0
 21 81  1  0
 21 82  1  0
 22 83  1  6
 24 84  1  0
 24 85  1  0
 24 86  1  0
 25 87  1  0
 25 88  1  0
 26 89  1  0
 26 90  1  0
 27 91  1  6
 28 92  1  0
 28 93  1  0
 32 94  1  0
 32 95  1  0
 34 96  1  0
 35 97  1  0
 36 98  1  0
 38 99  1  6
 39100  1  0
 39101  1  0
 40102  1  1
 41103  1  6
 42104  1  6
 44105  1  0
 44106  1  0
 44107  1  0
 45108  1  0
 47109  1  6
 48110  1  0
 48111  1  0
 49112  1  1
 50113  1  1
 51114  1  6
 53115  1  0
 53116  1  0
 53117  1  0
 54118  1  0
 55119  1  0
M  END
>  <score>  (1) 
-9.48

$$$$
=
     RDKit          3D

119126  0  0  0  0  0  0  0  0999 V2000
    0.5590   62.9570   70.9190 C   0  0  1  0  0  0  0  0  0  0  0  0
   -0.3470   64.1650   71.1400 C   0  0  0  0  0  0  0  0  0  0  0  0
    0.4950   65.4190   71.3300 C   0  0  1  0  0  0  0  0  0  0  0  0
    1.4280   65.6210   70.1250 C   0  0  1  0  0  0  0  0  0  0  0  0
    2.2670   64.3530   69.8840 C   0  0  2  0  0  0  0  0  0  0  0  0
    1.4720   63.1580   69.8410 O   0  0  0  0  0  0  0  0  0  0  0  0
    3.4420   64.2200   70.8510 C   0  0  0  0  0  0  0  0  0  0  0  0
   -0.3710   66.5390   71.5350 O   0  0  0  0  0  0  0  0  0  0  0  0
    1.2660   62.6350   72.1150 O   0  0  0  0  0  0  0  0  0  0  0  0
    1.3050   56.2800   77.6380 C   0  0  1  0  0  0  0  0  0  0  0  0
    2.8170   56.0960   77.8840 C   0  0  0  0  0  0  0  0  0  0  0  0
    3.4960   56.1960   76.5150 C   0  0  0  0  0  0  0  0  0  0  0  0
    2.3730   56.5040   75.5030 C   0  0  1  0  0  0  0  0  0  0  0  0
    1.1100   55.8200   76.1520 C   0  0  1  0  0  0  0  0  0  0  0  0
    1.2170   54.2690   76.0170 C   0  0  0  0  0  0  0  0  0  0  0  0
   -0.2450   56.3280   75.5680 C   0  0  1  0  0  0  0  0  0  0  0  0
   -0.0900   57.3180   74.4110 C   0  0  0  0  0  0  0  0  0  0  0  0
    0.7760   58.4900   74.8710 C   0  0  1  0  0  0  0  0  0  0  0  0
    2.2290   58.0210   75.1210 C   0  0  1  0  0  0  0  0  0  0  0  0
    2.9360   59.0520   76.0150 C   0  0  0  0  0  0  0  0  0  0  0  0
    2.4010   60.4750   75.8400 C   0  0  0  0  0  0  0  0  0  0  0  0
    1.8520   60.7920   74.4310 C   0  0  1  0  0  0  0  0  0  0  0  0
    0.7550   59.7660   73.9500 C   0  0  1  0  0  0  0  0  0  0  0  0
    1.0240   59.3550   72.4770 C   0  0  0  0  0  0  0  0  0  0  0  0
   -0.6390   60.4450   74.0140 C   0  0  0  0  0  0  0  0  0  0  0  0
   -0.7460   61.7260   73.1750 C   0  0  0  0  0  0  0  0  0  0  0  0
    0.4660   62.6590   73.3000 C   0  0  1  0  0  0  0  0  0  0  0  0
    1.3640   62.2620   74.4650 C   0  0  0  0  0  0  0  0  0  0  0  0
   -2.2420   55.1350   80.7700 O   0  0  0  0  0  0  0  0  0  0  0  0
   -1.1470   55.1810   80.2420 C   0  0  0  0  0  0  0  0  0  0  0  0
   -0.0140   54.5910   80.7050 O   0  0  0  0  0  0  0  0  0  0  0  0
    1.0580   54.8780   79.8110 C   0  0  0  0  0  0  0  0  0  0  0  0
    0.4550   55.7210   78.7470 C   0  0  0  0  0  0  0  0  0  0  0  0
   -0.8400   55.9010   79.0070 C   0  0  0  0  0  0  0  0  0  0  0  0
   -1.0890   55.2550   75.1490 O   0  0  0  0  0  0  0  0  0  0  0  0
    2.6910   55.8220   74.2790 O   0  0  0  0  0  0  0  0  0  0  0  0
    0.6200   65.8290   68.9450 O   0  0  0  0  0  0  0  0  0  0  0  0
    1.1430   66.8170   68.0630 C   0  0  1  0  0  0  0  0  0  0  0  0
    0.0300   67.2120   67.0900 C   0  0  0  0  0  0  0  0  0  0  0  0
    0.1600   68.6730   66.6630 C   0  0  1  0  0  0  0  0  0  0  0  0
    1.6420   69.0870   66.5970 C   0  0  1  0  0  0  0  0  0  0  0  0
    2.2450   68.9320   68.0150 C   0  0  2  0  0  0  0  0  0  0  0  0
    1.5390   67.9600   68.8150 O   0  0  0  0  0  0  0  0  0  0  0  0
    2.1960   70.2430   68.7920 C   0  0  0  0  0  0  0  0  0  0  0  0
   -0.5020   68.8900   65.4190 O   0  0  0  0  0  0  0  0  0  0  0  0
    2.3740   68.1810   65.7440 O   0  0  0  0  0  0  0  0  0  0  0  0
    2.6080   68.6630   64.4250 C   0  0  1  0  0  0  0  0  0  0  0  0
    4.0230   69.2220   64.3000 C   0  0  0  0  0  0  0  0  0  0  0  0
    5.0510   68.1010   64.3740 C   0  0  1  0  0  0  0  0  0  0  0  0
    4.7370   67.0040   63.3500 C   0  0  1  0  0  0  0  0  0  0  0  0
    3.2870   66.5190   63.4750 C   0  0  2  0  0  0  0  0  0  0  0  0
    2.3750   67.6280   63.4630 O   0  0  0  0  0  0  0  0  0  0  0  0
    3.0600   65.5800   64.6560 C   0  0  0  0  0  0  0  0  0  0  0  0
    6.3470   68.6470   64.1100 O   0  0  0  0  0  0  0  0  0  0  0  0
    4.9480   67.5660   62.0360 O   0  0  0  0  0  0  0  0  0  0  0  0
   -0.0895   62.1114   70.6462 H   0  0  0  0  0  0  0  0  0  0  0  0
   -1.0013   64.2946   70.2653 H   0  0  0  0  0  0  0  0  0  0  0  0
   -0.9567   63.9994   72.0405 H   0  0  0  0  0  0  0  0  0  0  0  0
    1.1352   65.3138   72.2183 H   0  0  0  0  0  0  0  0  0  0  0  0
    2.0855   66.4798   70.3253 H   0  0  0  0  0  0  0  0  0  0  0  0
    2.7018   64.4792   68.8815 H   0  0  0  0  0  0  0  0  0  0  0  0
    3.0717   64.2619   71.8859 H   0  0  0  0  0  0  0  0  0  0  0  0
    3.9492   63.2587   70.6817 H   0  0  0  0  0  0  0  0  0  0  0  0
    4.1512   65.0436   70.6817 H   0  0  0  0  0  0  0  0  0  0  0  0
   -0.4890   66.6915   72.5060 H   0  0  0  0  0  0  0  0  0  0  0  0
    0.9232   57.3094   77.7056 H   0  0  0  0  0  0  0  0  0  0  0  0
    3.1919   56.8849   78.5526 H   0  0  0  0  0  0  0  0  0  0  0  0
    3.0271   55.1280   78.3623 H   0  0  0  0  0  0  0  0  0  0  0  0
    4.2412   57.0051   76.5165 H   0  0  0  0  0  0  0  0  0  0  0  0
    4.0241   55.2657   76.2590 H   0  0  0  0  0  0  0  0  0  0  0  0
    1.2483   53.8151   77.0185 H   0  0  0  0  0  0  0  0  0  0  0  0
    0.3430   53.8875   75.4687 H   0  0  0  0  0  0  0  0  0  0  0  0
    2.1351   54.0111   75.4687 H   0  0  0  0  0  0  0  0  0  0  0  0
   -0.7153   56.8623   76.4066 H   0  0  0  0  0  0  0  0  0  0  0  0
    0.3912   56.8164   73.5585 H   0  0  0  0  0  0  0  0  0  0  0  0
   -1.0795   57.6861   74.1021 H   0  0  0  0  0  0  0  0  0  0  0  0
    0.3109   58.8259   75.8096 H   0  0  0  0  0  0  0  0  0  0  0  0
    2.7838   58.0091   74.1712 H   0  0  0  0  0  0  0  0  0  0  0  0
    2.7998   58.7548   77.0653 H   0  0  0  0  0  0  0  0  0  0  0  0
    3.9960   59.0647   75.7212 H   0  0  0  0  0  0  0  0  0  0  0  0
    1.5886   60.6269   76.5659 H   0  0  0  0  0  0  0  0  0  0  0  0
    3.2559   61.1489   75.9981 H   0  0  0  0  0  0  0  0  0  0  0  0
    2.6414   60.6798   73.6732 H   0  0  0  0  0  0  0  0  0  0  0  0
    1.6263   58.4348   72.4572 H   0  0  0  0  0  0  0  0  0  0  0  0
    0.0666   59.1777   71.9651 H   0  0  0  0  0  0  0  0  0  0  0  0
    1.5696   60.1614   71.9651 H   0  0  0  0  0  0  0  0  0  0  0  0
   -1.3902   59.7287   73.6498 H   0  0  0  0  0  0  0  0  0  0  0  0
   -0.8051   60.7349   75.0620 H   0  0  0  0  0  0  0  0  0  0  0  0
   -0.8538   61.4392   72.1185 H   0  0  0  0  0  0  0  0  0  0  0  0
   -1.6156   62.2825   73.5546 H   0  0  0  0  0  0  0  0  0  0  0  0
    0.0573   63.6667   73.4656 H   0  0  0  0  0  0  0  0  0  0  0  0
    2.2476   62.9172   74.4560 H   0  0  0  0  0  0  0  0  0  0  0  0
    0.7575   62.3683   75.3765 H   0  0  0  0  0  0  0  0  0  0  0  0
    1.8588   55.4248   80.3303 H   0  0  0  0  0  0  0  0  0  0  0  0
    1.5140   53.9630   79.4049 H   0  0  0  0  0  0  0  0  0  0  0  0
   -1.5491   56.4853   78.4021 H   0  0  0  0  0  0  0  0  0  0  0  0
   -1.4534   54.7918   75.9445 H   0  0  0  0  0  0  0  0  0  0  0  0
    3.1001   54.9447   74.4867 H   0  0  0  0  0  0  0  0  0  0  0  0
    2.0143   66.4257   67.5173 H   0  0  0  0  0  0  0  0  0  0  0  0
    0.0895   66.5711   66.1980 H   0  0  0  0  0  0  0  0  0  0  0  0
   -0.9374   67.0829   67.5975 H   0  0  0  0  0  0  0  0  0  0  0  0
   -0.3293   69.3075   67.4166 H   0  0  0  0  0  0  0  0  0  0  0  0
    1.7101   70.1170   66.2170 H   0  0  0  0  0  0  0  0  0  0  0  0
    3.2819   68.6058   67.8462 H   0  0  0  0  0  0  0  0  0  0  0  0
    2.2040   70.0301   69.8712 H   0  0  0  0  0  0  0  0  0  0  0  0
    3.0719   70.8559   68.5327 H   0  0  0  0  0  0  0  0  0  0  0  0
    1.2768   70.7888   68.5327 H   0  0  0  0  0  0  0  0  0  0  0  0
   -1.4291   69.1939   65.5871 H   0  0  0  0  0  0  0  0  0  0  0  0
    1.9017   69.4814   64.2215 H   0  0  0  0  0  0  0  0  0  0  0  0
    4.1228   69.7408   63.3352 H   0  0  0  0  0  0  0  0  0  0  0  0
    4.2020   69.9224   65.1291 H   0  0  0  0  0  0  0  0  0  0  0  0
    5.0222   67.6528   65.3781 H   0  0  0  0  0  0  0  0  0  0  0  0
    5.3906   66.1370   63.5262 H   0  0  0  0  0  0  0  0  0  0  0  0
    3.0776   65.9048   62.5868 H   0  0  0  0  0  0  0  0  0  0  0  0
    3.1941   66.1346   65.5964 H   0  0  0  0  0  0  0  0  0  0  0  0
    2.0381   65.1753   64.6115 H   0  0  0  0  0  0  0  0  0  0  0  0
    3.7841   64.7532   64.6115 H   0  0  0  0  0  0  0  0  0  0  0  0
    6.8046   68.8398   64.9665 H   0  0  0  0  0  0  0  0  0  0  0  0
    5.2946   68.4892   62.1237 H   0  0  0  0  0  0  0  0  0  0  0  0
  2  1  1  0
  3  2  1  0
  4  3  1  0
  5  4  1  0
  6  5  1  0
  6  1  1  0
  7  5  1  0
  8  3  1  0
  9  1  1  0
 11 10  1  0
 12 11  1  0
 13 12  1  0
 14 13  1  0
 14 10  1  0
 14 15  1  1
 16 14  1  0
 17 16  1  0
 18 17  1  0
 19 18  1  0
 19 13  1  0
 20 19  1  0
 21 20  1  0
 22 21  1  0
 23 18  1  0
 23 22  1  0
 23 24  1  6
 25 23  1  0
 26 25  1  0
 27 26  1  0
 27  9  1  0
 28 27  1  0
 28 22  1  0
 30 29  2  0
 31 30  1  0
 32 31  1  0
 33 32  1  0
 33 10  1  0
 34 30  1  0
 34 33  2  0
 35 16  1  0
 13 36  1  6
 37  4  1  0
 38 37  1  0
 39 38  1  0
 40 39  1  0
 41 40  1  0
 42 41  1  0
 43 42  1  0
 43 38  1  0
 44 42  1  0
 45 40  1  0
 46 41  1  0
 47 46  1  0
 48 47  1  0
 49 48  1  0
 50 49  1  0
 51 50  1  0
 52 51  1  0
 52 47  1  0
 53 51  1  0
 54 49  1  0
 55 50  1  0
  1 56  1  6
  2 57  1  0
  2 58  1  0
  3 59  1  1
  4 60  1  1
  5 61  1  6
  7 62  1  0
  7 63  1  0
  7 64  1  0
  8 65  1  0
 10 66  1  6
 11 67  1  0
 11 68  1  0
 12 69  1  0
 12 70  1  0
 15 71  1  0
 15 72  1  0
 15 73  1  0
 16 74  1  1
 17 75  1  0
 17 76  1  0
 18 77  1  1
 19 78  1  6
 20 79  1  0
 20 80  1  0
 21 81  1  0
 21 82  1  0
 22 83  1  6
 24 84  1  0
 24 85  1  0
 24 86  1  0
 25 87  1  0
 25 88  1  0
 26 89  1  0
 26 90  1  0
 27 91  1  1
 28 92  1  0
 28 93  1  0
 32 94  1  0
 32 95  1  0
 34 96  1  0
 35 97  1  0
 36 98  1  0
 38 99  1  6
 39100  1  0
 39101  1  0
 40102  1  1
 41103  1  6
 42104  1  6
 44105  1  0
 44106  1  0
 44107  1  0
 45108  1  0
 47109  1  6
 48110  1  0
 48111  1  0
 49112  1  1
 50113  1  1
 51114  1  6
 53115  1  0
 53116  1  0
 53117  1  0
 54118  1  0
 55119  1  0
M  END
>  <score>  (2) 
-9.205

$$$$
=
     RDKit          3D

119126  0  0  0  0  0  0  0  0999 V2000
    2.2930   60.1740   77.0370 C   0  0  1  0  0  0  0  0  0  0  0  0
    3.1720   58.9520   77.2870 C   0  0  0  0  0  0  0  0  0  0  0  0
    2.4660   57.6950   76.8000 C   0  0  1  0  0  0  0  0  0  0  0  0
    2.0950   57.8350   75.3140 C   0  0  1  0  0  0  0  0  0  0  0  0
    1.2780   59.1200   75.0890 C   0  0  2  0  0  0  0  0  0  0  0  0
    1.8910   60.2790   75.6720 O   0  0  0  0  0  0  0  0  0  0  0  0
   -0.1850   58.9790   75.5060 C   0  0  0  0  0  0  0  0  0  0  0  0
    3.3050   56.5630   77.0420 O   0  0  0  0  0  0  0  0  0  0  0  0
    1.1500   60.1520   77.8900 O   0  0  0  0  0  0  0  0  0  0  0  0
   -5.3200   65.5390   78.0080 C   0  0  1  0  0  0  0  0  0  0  0  0
   -6.5230   64.5740   78.0570 C   0  0  0  0  0  0  0  0  0  0  0  0
   -6.2170   63.4470   77.0670 C   0  0  0  0  0  0  0  0  0  0  0  0
   -4.8100   63.7400   76.5070 C   0  0  1  0  0  0  0  0  0  0  0  0
   -4.7180   65.3120   76.5780 C   0  0  1  0  0  0  0  0  0  0  0  0
   -5.6180   65.9470   75.4730 C   0  0  0  0  0  0  0  0  0  0  0  0
   -3.2590   65.8580   76.4770 C   0  0  1  0  0  0  0  0  0  0  0  0
   -2.2060   64.7750   76.2300 C   0  0  0  0  0  0  0  0  0  0  0  0
   -2.3150   63.7160   77.3270 C   0  0  1  0  0  0  0  0  0  0  0  0
   -3.6470   62.9390   77.1970 C   0  0  1  0  0  0  0  0  0  0  0  0
   -3.9520   62.2490   78.5360 C   0  0  0  0  0  0  0  0  0  0  0  0
   -2.6960   61.8780   79.3260 C   0  0  0  0  0  0  0  0  0  0  0  0
   -1.4540   61.5670   78.4620 C   0  0  1  0  0  0  0  0  0  0  0  0
   -1.1010   62.7210   77.4470 C   0  0  1  0  0  0  0  0  0  0  0  0
   -0.7750   62.1190   76.0530 C   0  0  0  0  0  0  0  0  0  0  0  0
    0.1570   63.4760   77.9510 C   0  0  0  0  0  0  0  0  0  0  0  0
    1.3870   62.5770   78.1390 C   0  0  0  0  0  0  0  0  0  0  0  0
    1.0850   61.2360   78.8200 C   0  0  1  0  0  0  0  0  0  0  0  0
   -0.3050   61.2210   79.4430 C   0  0  0  0  0  0  0  0  0  0  0  0
   -5.2670   70.0990   79.7140 O   0  0  0  0  0  0  0  0  0  0  0  0
   -5.6820   69.0240   79.3220 C   0  0  0  0  0  0  0  0  0  0  0  0
   -6.9850   68.6430   79.2720 O   0  0  0  0  0  0  0  0  0  0  0  0
   -7.0610   67.3160   78.7570 C   0  0  0  0  0  0  0  0  0  0  0  0
   -5.6510   66.9210   78.5040 C   0  0  0  0  0  0  0  0  0  0  0  0
   -4.8440   67.9260   78.8430 C   0  0  0  0  0  0  0  0  0  0  0  0
   -3.1280   66.8670   75.4750 O   0  0  0  0  0  0  0  0  0  0  0  0
   -4.7960   63.3370   75.1280 O   0  0  0  0  0  0  0  0  0  0  0  0
    3.3110   57.9610   74.5440 O   0  0  0  0  0  0  0  0  0  0  0  0
    3.2440   58.9590   73.5320 C   0  0  1  0  0  0  0  0  0  0  0  0
    4.4470   59.8880   73.7100 C   0  0  0  0  0  0  0  0  0  0  0  0
    4.9160   60.4500   72.3690 C   0  0  1  0  0  0  0  0  0  0  0  0
    3.7210   60.6500   71.4180 C   0  0  1  0  0  0  0  0  0  0  0  0
    3.0690   59.2660   71.1720 C   0  0  2  0  0  0  0  0  0  0  0  0
    3.3130   58.3390   72.2510 O   0  0  0  0  0  0  0  0  0  0  0  0
    3.6130   58.6070   69.9100 C   0  0  0  0  0  0  0  0  0  0  0  0
    5.6410   61.6630   72.5620 O   0  0  0  0  0  0  0  0  0  0  0  0
    2.7120   61.4660   72.0520 O   0  0  0  0  0  0  0  0  0  0  0  0
    1.5230   61.6430   71.2890 C   0  0  1  0  0  0  0  0  0  0  0  0
    0.4790   62.4140   72.0930 C   0  0  0  0  0  0  0  0  0  0  0  0
    0.9090   63.8630   72.2800 C   0  0  1  0  0  0  0  0  0  0  0  0
    1.2420   64.5130   70.9320 C   0  0  1  0  0  0  0  0  0  0  0  0
    2.2470   63.6700   70.1370 C   0  0  2  0  0  0  0  0  0  0  0  0
    1.8150   62.3040   70.0530 O   0  0  0  0  0  0  0  0  0  0  0  0
    3.6830   63.8060   70.6360 C   0  0  0  0  0  0  0  0  0  0  0  0
   -0.1570   64.5810   72.9100 O   0  0  0  0  0  0  0  0  0  0  0  0
    0.0070   64.6230   70.1900 O   0  0  0  0  0  0  0  0  0  0  0  0
    2.8992   61.0619   77.2699 H   0  0  0  0  0  0  0  0  0  0  0  0
    4.1220   59.0695   76.7450 H   0  0  0  0  0  0  0  0  0  0  0  0
    3.3669   58.8618   78.3658 H   0  0  0  0  0  0  0  0  0  0  0  0
    1.5265   57.5496   77.3534 H   0  0  0  0  0  0  0  0  0  0  0  0
    1.5100   56.9545   75.0098 H   0  0  0  0  0  0  0  0  0  0  0  0
    1.2775   59.2775   74.0003 H   0  0  0  0  0  0  0  0  0  0  0  0
   -0.2544   58.9723   76.6038 H   0  0  0  0  0  0  0  0  0  0  0  0
   -0.7632   59.8256   75.1072 H   0  0  0  0  0  0  0  0  0  0  0  0
   -0.5908   58.0376   75.1072 H   0  0  0  0  0  0  0  0  0  0  0  0
    3.4046   56.4286   78.0178 H   0  0  0  0  0  0  0  0  0  0  0  0
   -4.5130   65.3450   78.7298 H   0  0  0  0  0  0  0  0  0  0  0  0
   -6.6421   64.1665   79.0717 H   0  0  0  0  0  0  0  0  0  0  0  0
   -7.4582   65.0905   77.7950 H   0  0  0  0  0  0  0  0  0  0  0  0
   -6.2286   62.4742   77.5804 H   0  0  0  0  0  0  0  0  0  0  0  0
   -6.9678   63.4023   76.2643 H   0  0  0  0  0  0  0  0  0  0  0  0
   -6.4297   66.5197   75.9455 H   0  0  0  0  0  0  0  0  0  0  0  0
   -5.0116   66.6184   74.8472 H   0  0  0  0  0  0  0  0  0  0  0  0
   -6.0472   65.1506   74.8472 H   0  0  0  0  0  0  0  0  0  0  0  0
   -3.0666   66.2936   77.4686 H   0  0  0  0  0  0  0  0  0  0  0  0
   -2.3794   64.3089   75.2488 H   0  0  0  0  0  0  0  0  0  0  0  0
   -1.2015   65.2230   76.2442 H   0  0  0  0  0  0  0  0  0  0  0  0
   -2.2914   64.2876   78.2665 H   0  0  0  0  0  0  0  0  0  0  0  0
   -3.5357   62.1325   76.4572 H   0  0  0  0  0  0  0  0  0  0  0  0
   -4.5613   62.9298   79.1486 H   0  0  0  0  0  0  0  0  0  0  0  0
   -4.4807   61.3121   78.3064 H   0  0  0  0  0  0  0  0  0  0  0  0
   -2.4487   62.7194   79.9899 H   0  0  0  0  0  0  0  0  0  0  0  0
   -2.9347   60.9515   79.8688 H   0  0  0  0  0  0  0  0  0  0  0  0
   -1.6484   60.7103   77.8000 H   0  0  0  0  0  0  0  0  0  0  0  0
   -0.2548   61.1583   76.1811 H   0  0  0  0  0  0  0  0  0  0  0  0
   -1.7094   61.9585   75.4953 H   0  0  0  0  0  0  0  0  0  0  0  0
   -0.1299   62.8138   75.4953 H   0  0  0  0  0  0  0  0  0  0  0  0
    0.4080   64.2582   77.2194 H   0  0  0  0  0  0  0  0  0  0  0  0
   -0.0922   63.8879   78.9401 H   0  0  0  0  0  0  0  0  0  0  0  0
    1.8194   62.3717   77.1486 H   0  0  0  0  0  0  0  0  0  0  0  0
    2.0783   63.1198   78.8004 H   0  0  0  0  0  0  0  0  0  0  0  0
    1.8493   61.1149   79.6017 H   0  0  0  0  0  0  0  0  0  0  0  0
   -0.4895   60.2145   79.8466 H   0  0  0  0  0  0  0  0  0  0  0  0
   -0.3089   62.0028   80.2168 H   0  0  0  0  0  0  0  0  0  0  0  0
   -7.5255   66.6420   79.4918 H   0  0  0  0  0  0  0  0  0  0  0  0
   -7.6757   67.2605   77.8464 H   0  0  0  0  0  0  0  0  0  0  0  0
   -3.7461   67.9288   78.7747 H   0  0  0  0  0  0  0  0  0  0  0  0
   -3.0134   67.7496   75.9085 H   0  0  0  0  0  0  0  0  0  0  0  0
   -4.7617   62.3491   75.0732 H   0  0  0  0  0  0  0  0  0  0  0  0
    2.3033   59.5240   73.6083 H   0  0  0  0  0  0  0  0  0  0  0  0
    4.1617   60.7219   74.3682 H   0  0  0  0  0  0  0  0  0  0  0  0
    5.2713   59.3088   74.1517 H   0  0  0  0  0  0  0  0  0  0  0  0
    5.5968   59.7242   71.9002 H   0  0  0  0  0  0  0  0  0  0  0  0
    4.0759   61.1232   70.4906 H   0  0  0  0  0  0  0  0  0  0  0  0
    1.9922   59.4724   71.0829 H   0  0  0  0  0  0  0  0  0  0  0  0
    4.2906   57.7862   70.1879 H   0  0  0  0  0  0  0  0  0  0  0  0
    2.7779   58.2078   69.3156 H   0  0  0  0  0  0  0  0  0  0  0  0
    4.1632   59.3514   69.3156 H   0  0  0  0  0  0  0  0  0  0  0  0
    5.7439   61.8352   73.5315 H   0  0  0  0  0  0  0  0  0  0  0  0
    1.1054   60.6527   71.0548 H   0  0  0  0  0  0  0  0  0  0  0  0
   -0.4813   62.3882   71.5572 H   0  0  0  0  0  0  0  0  0  0  0  0
    0.3756   61.9444   73.0823 H   0  0  0  0  0  0  0  0  0  0  0  0
    1.8125   63.8918   72.9068 H   0  0  0  0  0  0  0  0  0  0  0  0
    1.6998   65.4990   71.0996 H   0  0  0  0  0  0  0  0  0  0  0  0
    2.2670   64.0767   69.1151 H   0  0  0  0  0  0  0  0  0  0  0  0
    3.6904   63.8067   71.7360 H   0  0  0  0  0  0  0  0  0  0  0  0
    4.2814   62.9605   70.2658 H   0  0  0  0  0  0  0  0  0  0  0  0
    4.1121   64.7488   70.2658 H   0  0  0  0  0  0  0  0  0  0  0  0
   -0.0620   64.5170   73.8934 H   0  0  0  0  0  0  0  0  0  0  0  0
   -0.7525   64.6906   70.8215 H   0  0  0  0  0  0  0  0  0  0  0  0
  2  1  1  0
  3  2  1  0
  4  3  1  0
  5  4  1  0
  6  5  1  0
  6  1  1  0
  7  5  1  0
  8  3  1  0
  9  1  1  0
 11 10  1  0
 12 11  1  0
 13 12  1  0
 14 13  1  0
 14 10  1  0
 14 15  1  6
 16 14  1  0
 17 16  1  0
 18 17  1  0
 19 18  1  0
 19 13  1  0
 20 19  1  0
 21 20  1  0
 22 21  1  0
 23 18  1  0
 23 22  1  0
 23 24  1  6
 25 23  1  0
 26 25  1  0
 27 26  1  0
 27  9  1  0
 28 27  1  0
 28 22  1  0
 30 29  2  0
 31 30  1  0
 32 31  1  0
 33 32  1  0
 33 10  1  0
 34 30  1  0
 34 33  2  0
 35 16  1  0
 13 36  1  6
 37  4  1  0
 38 37  1  0
 39 38  1  0
 40 39  1  0
 41 40  1  0
 42 41  1  0
 43 42  1  0
 43 38  1  0
 44 42  1  0
 45 40  1  0
 46 41  1  0
 47 46  1  0
 48 47  1  0
 49 48  1  0
 50 49  1  0
 51 50  1  0
 52 51  1  0
 52 47  1  0
 53 51  1  0
 54 49  1  0
 55 50  1  0
  1 56  1  1
  2 57  1  0
  2 58  1  0
  3 59  1  1
  4 60  1  6
  5 61  1  6
  7 62  1  0
  7 63  1  0
  7 64  1  0
  8 65  1  0
 10 66  1  1
 11 67  1  0
 11 68  1  0
 12 69  1  0
 12 70  1  0
 15 71  1  0
 15 72  1  0
 15 73  1  0
 16 74  1  1
 17 75  1  0
 17 76  1  0
 18 77  1  1
 19 78  1  6
 20 79  1  0
 20 80  1  0
 21 81  1  0
 21 82  1  0
 22 83  1  6
 24 84  1  0
 24 85  1  0
 24 86  1  0
 25 87  1  0
 25 88  1  0
 26 89  1  0
 26 90  1  0
 27 91  1  1
 28 92  1  0
 28 93  1  0
 32 94  1  0
 32 95  1  0
 34 96  1  0
 35 97  1  0
 36 98  1  0
 38 99  1  6
 39100  1  0
 39101  1  0
 40102  1  6
 41103  1  6
 42104  1  6
 44105  1  0
 44106  1  0
 44107  1  0
 45108  1  0
 47109  1  6
 48110  1  0
 48111  1  0
 49112  1  1
 50113  1  1
 51114  1  6
 53115  1  0
 53116  1  0
 53117  1  0
 54118  1  0
 55119  1  0
M  END
>  <score>  (3) 
-8.578

$$$$
=
     RDKit          3D

119126  0  0  0  0  0  0  0  0999 V2000
    0.9890   59.0480   76.4460 C   0  0  1  0  0  0  0  0  0  0  0  0
    1.9790   57.9150   76.6960 C   0  0  0  0  0  0  0  0  0  0  0  0
    1.6710   56.7430   75.7750 C   0  0  1  0  0  0  0  0  0  0  0  0
    1.6880   57.2000   74.3070 C   0  0  1  0  0  0  0  0  0  0  0  0
    0.7380   58.3960   74.1120 C   0  0  2  0  0  0  0  0  0  0  0  0
    0.9510   59.4390   75.0740 O   0  0  0  0  0  0  0  0  0  0  0  0
   -0.7310   57.9860   74.0330 C   0  0  0  0  0  0  0  0  0  0  0  0
    2.6090   55.6930   76.0230 O   0  0  0  0  0  0  0  0  0  0  0  0
   -0.3160   58.6820   76.8930 O   0  0  0  0  0  0  0  0  0  0  0  0
   -7.8600   62.4190   76.7920 C   0  0  1  0  0  0  0  0  0  0  0  0
   -8.7750   61.2520   76.3660 C   0  0  0  0  0  0  0  0  0  0  0  0
   -8.0440   60.5130   75.2430 C   0  0  0  0  0  0  0  0  0  0  0  0
   -6.6840   61.2230   75.0790 C   0  0  1  0  0  0  0  0  0  0  0  0
   -7.0000   62.7050   75.5120 C   0  0  1  0  0  0  0  0  0  0  0  0
   -7.8420   63.4130   74.4060 C   0  0  0  0  0  0  0  0  0  0  0  0
   -5.7280   63.5410   75.8520 C   0  0  1  0  0  0  0  0  0  0  0  0
   -4.4120   62.7990   75.6060 C   0  0  0  0  0  0  0  0  0  0  0  0
   -4.4260   61.4890   76.3930 C   0  0  1  0  0  0  0  0  0  0  0  0
   -5.4830   60.5200   75.8100 C   0  0  1  0  0  0  0  0  0  0  0  0
   -5.8150   59.4550   76.8660 C   0  0  0  0  0  0  0  0  0  0  0  0
   -4.6480   59.1510   77.8080 C   0  0  0  0  0  0  0  0  0  0  0  0
   -3.2470   59.3370   77.1860 C   0  0  1  0  0  0  0  0  0  0  0  0
   -3.0370   60.7650   76.5500 C   0  0  1  0  0  0  0  0  0  0  0  0
   -2.3530   60.6320   75.1620 C   0  0  0  0  0  0  0  0  0  0  0  0
   -2.1040   61.5990   77.4690 C   0  0  0  0  0  0  0  0  0  0  0  0
   -0.7350   60.9510   77.7150 C   0  0  0  0  0  0  0  0  0  0  0  0
   -0.7960   59.4450   78.0030 C   0  0  1  0  0  0  0  0  0  0  0  0
   -2.2190   58.9850   78.2910 C   0  0  0  0  0  0  0  0  0  0  0  0
   -9.2840   66.1010   79.6420 O   0  0  0  0  0  0  0  0  0  0  0  0
   -9.3190   65.2080   78.8150 C   0  0  0  0  0  0  0  0  0  0  0  0
  -10.4180   64.8000   78.1300 O   0  0  0  0  0  0  0  0  0  0  0  0
  -10.0530   63.7310   77.2610 C   0  0  0  0  0  0  0  0  0  0  0  0
   -8.6010   63.5240   77.4970 C   0  0  0  0  0  0  0  0  0  0  0  0
   -8.1750   64.3900   78.4150 C   0  0  0  0  0  0  0  0  0  0  0  0
   -5.6950   64.7850   75.1500 O   0  0  0  0  0  0  0  0  0  0  0  0
   -6.3510   61.2100   73.6820 O   0  0  0  0  0  0  0  0  0  0  0  0
    3.0200   57.6550   73.9800 O   0  0  0  0  0  0  0  0  0  0  0  0
    3.0410   58.7990   73.1340 C   0  0  1  0  0  0  0  0  0  0  0  0
    4.2260   59.6710   73.5540 C   0  0  0  0  0  0  0  0  0  0  0  0
    4.8080   60.4280   72.3600 C   0  0  1  0  0  0  0  0  0  0  0  0
    3.6970   60.7900   71.3570 C   0  0  1  0  0  0  0  0  0  0  0  0
    3.0660   59.4710   70.8450 C   0  0  2  0  0  0  0  0  0  0  0  0
    3.2160   58.3840   71.7820 O   0  0  0  0  0  0  0  0  0  0  0  0
    3.7130   59.0080   69.5450 C   0  0  0  0  0  0  0  0  0  0  0  0
    5.5170   61.5840   72.8000 O   0  0  0  0  0  0  0  0  0  0  0  0
    2.6410   61.5130   72.0240 O   0  0  0  0  0  0  0  0  0  0  0  0
    1.4650   61.7040   71.2460 C   0  0  1  0  0  0  0  0  0  0  0  0
    0.4160   62.4810   72.0370 C   0  0  0  0  0  0  0  0  0  0  0  0
    0.8560   63.9260   72.2350 C   0  0  1  0  0  0  0  0  0  0  0  0
    1.2130   64.5770   70.8940 C   0  0  1  0  0  0  0  0  0  0  0  0
    2.2220   63.7280   70.1110 C   0  0  2  0  0  0  0  0  0  0  0  0
    1.7790   62.3660   70.0150 O   0  0  0  0  0  0  0  0  0  0  0  0
    3.6520   63.8490   70.6300 C   0  0  0  0  0  0  0  0  0  0  0  0
   -0.2130   64.6500   72.8510 O   0  0  0  0  0  0  0  0  0  0  0  0
   -0.0100   64.7000   70.1340 O   0  0  0  0  0  0  0  0  0  0  0  0
    1.3382   59.9155   77.0252 H   0  0  0  0  0  0  0  0  0  0  0  0
    3.0003   58.2737   76.5003 H   0  0  0  0  0  0  0  0  0  0  0  0
    1.8939   57.5849   77.7418 H   0  0  0  0  0  0  0  0  0  0  0  0
    0.6616   56.3567   75.9795 H   0  0  0  0  0  0  0  0  0  0  0  0
    1.3770   56.3590   73.6698 H   0  0  0  0  0  0  0  0  0  0  0  0
    0.9972   58.8158   73.1288 H   0  0  0  0  0  0  0  0  0  0  0  0
   -1.1354   57.8731   75.0497 H   0  0  0  0  0  0  0  0  0  0  0  0
   -1.2993   58.7599   73.4962 H   0  0  0  0  0  0  0  0  0  0  0  0
   -0.8164   57.0297   73.4962 H   0  0  0  0  0  0  0  0  0  0  0  0
    2.7176   55.5714   76.9995 H   0  0  0  0  0  0  0  0  0  0  0  0
   -7.1558   62.2093   77.6106 H   0  0  0  0  0  0  0  0  0  0  0  0
   -8.9484   60.5755   77.2159 H   0  0  0  0  0  0  0  0  0  0  0  0
   -9.7554   61.6187   76.0279 H   0  0  0  0  0  0  0  0  0  0  0  0
   -7.8936   59.4578   75.5149 H   0  0  0  0  0  0  0  0  0  0  0  0
   -8.6221   60.5303   74.3073 H   0  0  0  0  0  0  0  0  0  0  0  0
   -8.6027   64.0526   74.8774 H   0  0  0  0  0  0  0  0  0  0  0  0
   -7.1805   64.0302   73.7803 H   0  0  0  0  0  0  0  0  0  0  0  0
   -8.3365   62.6554   73.7803 H   0  0  0  0  0  0  0  0  0  0  0  0
   -5.8116   63.7275   76.9329 H   0  0  0  0  0  0  0  0  0  0  0  0
   -4.3050   62.5835   74.5326 H   0  0  0  0  0  0  0  0  0  0  0  0
   -3.5668   63.4215   75.9347 H   0  0  0  0  0  0  0  0  0  0  0  0
   -4.6960   61.7849   77.4175 H   0  0  0  0  0  0  0  0  0  0  0  0
   -5.0578   59.9767   74.9533 H   0  0  0  0  0  0  0  0  0  0  0  0
   -6.6645   59.8121   77.4667 H   0  0  0  0  0  0  0  0  0  0  0  0
   -6.0494   58.5249   76.3276 H   0  0  0  0  0  0  0  0  0  0  0  0
   -4.7275   59.8196   78.6778 H   0  0  0  0  0  0  0  0  0  0  0  0
   -4.7312   58.0858   78.0696 H   0  0  0  0  0  0  0  0  0  0  0  0
   -3.1133   58.6640   76.3262 H   0  0  0  0  0  0  0  0  0  0  0  0
   -1.2817   60.4237   75.2996 H   0  0  0  0  0  0  0  0  0  0  0  0
   -2.8178   59.8074   74.6017 H   0  0  0  0  0  0  0  0  0  0  0  0
   -2.4750   61.5707   74.6017 H   0  0  0  0  0  0  0  0  0  0  0  0
   -1.9434   62.5811   77.0003 H   0  0  0  0  0  0  0  0  0  0  0  0
   -2.6024   61.6749   78.4467 H   0  0  0  0  0  0  0  0  0  0  0  0
   -0.1137   61.1066   76.8207 H   0  0  0  0  0  0  0  0  0  0  0  0
   -0.3155   61.4284   78.6128 H   0  0  0  0  0  0  0  0  0  0  0  0
   -0.1599   59.2791   78.8849 H   0  0  0  0  0  0  0  0  0  0  0  0
   -2.2080   57.8919   78.4137 H   0  0  0  0  0  0  0  0  0  0  0  0
   -2.5413   59.5178   79.1978 H   0  0  0  0  0  0  0  0  0  0  0  0
  -10.6188   62.8208   77.5087 H   0  0  0  0  0  0  0  0  0  0  0  0
  -10.2723   63.9607   76.2078 H   0  0  0  0  0  0  0  0  0  0  0  0
   -7.1488   64.4745   78.8020 H   0  0  0  0  0  0  0  0  0  0  0  0
   -5.6752   65.5308   75.8008 H   0  0  0  0  0  0  0  0  0  0  0  0
   -5.3673   61.1716   73.5776 H   0  0  0  0  0  0  0  0  0  0  0  0
    2.0986   59.3599   73.2191 H   0  0  0  0  0  0  0  0  0  0  0  0
    3.8876   60.3967   74.3082 H   0  0  0  0  0  0  0  0  0  0  0  0
    5.0091   59.0180   73.9669 H   0  0  0  0  0  0  0  0  0  0  0  0
    5.5249   59.7752   71.8405 H   0  0  0  0  0  0  0  0  0  0  0  0
    4.1290   61.3958   70.5468 H   0  0  0  0  0  0  0  0  0  0  0  0
    2.0010   59.7051   70.7005 H   0  0  0  0  0  0  0  0  0  0  0  0
    4.5880   58.3818   69.7736 H   0  0  0  0  0  0  0  0  0  0  0  0
    2.9863   58.4236   68.9616 H   0  0  0  0  0  0  0  0  0  0  0  0
    4.0316   59.8844   68.9616 H   0  0  0  0  0  0  0  0  0  0  0  0
    5.5305   61.6060   73.7897 H   0  0  0  0  0  0  0  0  0  0  0  0
    1.0426   60.7177   71.0036 H   0  0  0  0  0  0  0  0  0  0  0  0
   -0.5365   62.4652   71.4870 H   0  0  0  0  0  0  0  0  0  0  0  0
    0.2937   62.0091   73.0231 H   0  0  0  0  0  0  0  0  0  0  0  0
    1.7507   63.9457   72.8746 H   0  0  0  0  0  0  0  0  0  0  0  0
    1.6761   65.5588   71.0716 H   0  0  0  0  0  0  0  0  0  0  0  0
    2.2604   64.1390   69.0914 H   0  0  0  0  0  0  0  0  0  0  0  0
    3.6441   63.8483   71.7300 H   0  0  0  0  0  0  0  0  0  0  0  0
    4.2470   62.9980   70.2671 H   0  0  0  0  0  0  0  0  0  0  0  0
    4.0956   64.7879   70.2671 H   0  0  0  0  0  0  0  0  0  0  0  0
   -0.1268   64.5916   73.8355 H   0  0  0  0  0  0  0  0  0  0  0  0
   -0.7777   64.7772   70.7543 H   0  0  0  0  0  0  0  0  0  0  0  0
  2  1  1  0
  3  2  1  0
  4  3  1  0
  5  4  1  0
  6  5  1  0
  6  1  1  0
  7  5  1  0
  8  3  1  0
  9  1  1  0
 11 10  1  0
 12 11  1  0
 13 12  1  0
 14 13  1  0
 14 10  1  0
 14 15  1  6
 16 14  1  0
 17 16  1  0
 18 17  1  0
 19 18  1  0
 19 13  1  0
 20 19  1  0
 21 20  1  0
 22 21  1  0
 23 18  1  0
 23 22  1  0
 23 24  1  6
 25 23  1  0
 26 25  1  0
 27 26  1  0
 27  9  1  0
 28 27  1  0
 28 22  1  0
 30 29  2  0
 31 30  1  0
 32 31  1  0
 33 32  1  0
 33 10  1  0
 34 30  1  0
 34 33  2  0
 35 16  1  0
 13 36  1  6
 37  4  1  0
 38 37  1  0
 39 38  1  0
 40 39  1  0
 41 40  1  0
 42 41  1  0
 43 42  1  0
 43 38  1  0
 44 42  1  0
 45 40  1  0
 46 41  1  0
 47 46  1  0
 48 47  1  0
 49 48  1  0
 50 49  1  0
 51 50  1  0
 52 51  1  0
 52 47  1  0
 53 51  1  0
 54 49  1  0
 55 50  1  0
  1 56  1  1
  2 57  1  0
  2 58  1  0
  3 59  1  1
  4 60  1  6
  5 61  1  6
  7 62  1  0
  7 63  1  0
  7 64  1  0
  8 65  1  0
 10 66  1  1
 11 67  1  0
 11 68  1  0
 12 69  1  0
 12 70  1  0
 15 71  1  0
 15 72  1  0
 15 73  1  0
 16 74  1  1
 17 75  1  0
 17 76  1  0
 18 77  1  1
 19 78  1  6
 20 79  1  0
 20 80  1  0
 21 81  1  0
 21 82  1  0
 22 83  1  6
 24 84  1  0
 24 85  1  0
 24 86  1  0
 25 87  1  0
 25 88  1  0
 26 89  1  0
 26 90  1  0
 27 91  1  1
 28 92  1  0
 28 93  1  0
 32 94  1  0
 32 95  1  0
 34 96  1  0
 35 97  1  0
 36 98  1  0
 38 99  1  6
 39100  1  0
 39101  1  0
 40102  1  6
 41103  1  6
 42104  1  6
 44105  1  0
 44106  1  0
 44107  1  0
 45108  1  0
 47109  1  6
 48110  1  0
 48111  1  0
 49112  1  1
 50113  1  1
 51114  1  6
 53115  1  0
 53116  1  0
 53117  1  0
 54118  1  0
 55119  1  0
M  END
>  <score>  (4) 
-8.287

$$$$
=
     RDKit          3D

119126  0  0  0  0  0  0  0  0999 V2000
   -2.2920   58.6160   77.3050 C   0  0  1  0  0  0  0  0  0  0  0  0
   -2.4450   58.5550   78.8220 C   0  0  0  0  0  0  0  0  0  0  0  0
   -2.0800   57.1650   79.3250 C   0  0  1  0  0  0  0  0  0  0  0  0
   -0.6550   56.7950   78.8810 C   0  0  1  0  0  0  0  0  0  0  0  0
   -0.5180   56.9470   77.3560 C   0  0  2  0  0  0  0  0  0  0  0  0
   -0.9920   58.2140   76.8770 O   0  0  0  0  0  0  0  0  0  0  0  0
   -1.1300   55.7810   76.5810 C   0  0  0  0  0  0  0  0  0  0  0  0
   -2.2280   57.1290   80.7470 O   0  0  0  0  0  0  0  0  0  0  0  0
   -3.2910   57.8210   76.6680 O   0  0  0  0  0  0  0  0  0  0  0  0
   -7.5500   64.6760   74.2660 C   0  0  1  0  0  0  0  0  0  0  0  0
   -6.8370   65.7790   75.0750 C   0  0  0  0  0  0  0  0  0  0  0  0
   -6.6210   65.2160   76.4820 C   0  0  0  0  0  0  0  0  0  0  0  0
   -7.1500   63.7680   76.4480 C   0  0  1  0  0  0  0  0  0  0  0  0
   -8.2880   63.8290   75.3590 C   0  0  1  0  0  0  0  0  0  0  0  0
   -9.5270   64.5880   75.9280 C   0  0  0  0  0  0  0  0  0  0  0  0
   -8.7060   62.4280   74.8140 C   0  0  1  0  0  0  0  0  0  0  0  0
   -8.0070   61.2570   75.5070 C   0  0  0  0  0  0  0  0  0  0  0  0
   -6.4940   61.4500   75.4030 C   0  0  1  0  0  0  0  0  0  0  0  0
   -6.0460   62.6680   76.2470 C   0  0  1  0  0  0  0  0  0  0  0  0
   -4.6620   63.1250   75.7610 C   0  0  0  0  0  0  0  0  0  0  0  0
   -3.8140   61.9890   75.1880 C   0  0  0  0  0  0  0  0  0  0  0  0
   -4.0930   60.5990   75.8030 C   0  0  1  0  0  0  0  0  0  0  0  0
   -5.6140   60.1880   75.7390 C   0  0  1  0  0  0  0  0  0  0  0  0
   -6.0570   59.5850   77.1000 C   0  0  0  0  0  0  0  0  0  0  0  0
   -5.8030   59.1020   74.6470 C   0  0  0  0  0  0  0  0  0  0  0  0
   -4.9510   57.8450   74.8670 C   0  0  0  0  0  0  0  0  0  0  0  0
   -3.5050   58.1340   75.2890 C   0  0  1  0  0  0  0  0  0  0  0  0
   -3.1430   59.6000   75.0920 C   0  0  0  0  0  0  0  0  0  0  0  0
   -9.7190   65.3560   69.9600 O   0  0  0  0  0  0  0  0  0  0  0  0
   -9.2730   65.5810   71.0700 C   0  0  0  0  0  0  0  0  0  0  0  0
   -9.2620   66.7880   71.6940 O   0  0  0  0  0  0  0  0  0  0  0  0
   -8.6530   66.6430   72.9750 C   0  0  0  0  0  0  0  0  0  0  0  0
   -8.2830   65.2060   73.0620 C   0  0  0  0  0  0  0  0  0  0  0  0
   -8.6440   64.5880   71.9390 C   0  0  0  0  0  0  0  0  0  0  0  0
  -10.1190   62.2240   74.8740 O   0  0  0  0  0  0  0  0  0  0  0  0
   -7.7470   63.4920   77.7260 O   0  0  0  0  0  0  0  0  0  0  0  0
    0.2730   57.7210   79.4880 O   0  0  0  0  0  0  0  0  0  0  0  0
    1.3730   58.0580   78.6500 C   0  0  1  0  0  0  0  0  0  0  0  0
    1.5990   59.5670   78.7580 C   0  0  0  0  0  0  0  0  0  0  0  0
    3.0760   59.9210   78.5850 C   0  0  1  0  0  0  0  0  0  0  0  0
    3.7520   58.9480   77.6020 C   0  0  1  0  0  0  0  0  0  0  0  0
    3.6520   57.5210   78.1950 C   0  0  2  0  0  0  0  0  0  0  0  0
    2.5380   57.3730   79.1010 O   0  0  0  0  0  0  0  0  0  0  0  0
    4.9010   57.1560   78.9900 C   0  0  0  0  0  0  0  0  0  0  0  0
    3.2190   61.2760   78.1670 O   0  0  0  0  0  0  0  0  0  0  0  0
    3.0280   58.9200   76.3530 O   0  0  0  0  0  0  0  0  0  0  0  0
    3.4970   57.9590   75.4130 C   0  0  1  0  0  0  0  0  0  0  0  0
    2.3400   57.1200   74.8790 C   0  0  0  0  0  0  0  0  0  0  0  0
    1.4340   57.9610   73.9890 C   0  0  1  0  0  0  0  0  0  0  0  0
    2.2420   58.6550   72.8870 C   0  0  1  0  0  0  0  0  0  0  0  0
    3.4290   59.4330   73.4690 C   0  0  2  0  0  0  0  0  0  0  0  0
    4.2030   58.6030   74.3470 O   0  0  0  0  0  0  0  0  0  0  0  0
    3.0300   60.7600   74.1090 C   0  0  0  0  0  0  0  0  0  0  0  0
    0.4500   57.1060   73.3970 O   0  0  0  0  0  0  0  0  0  0  0  0
    2.7280   57.6270   71.9950 O   0  0  0  0  0  0  0  0  0  0  0  0
   -2.4246   59.6670   77.0089 H   0  0  0  0  0  0  0  0  0  0  0  0
   -1.7786   59.2972   79.2858 H   0  0  0  0  0  0  0  0  0  0  0  0
   -3.4893   58.7739   79.0894 H   0  0  0  0  0  0  0  0  0  0  0  0
   -2.7565   56.4147   78.8899 H   0  0  0  0  0  0  0  0  0  0  0  0
   -0.4482   55.7568   79.1799 H   0  0  0  0  0  0  0  0  0  0  0  0
    0.5637   56.9193   77.1579 H   0  0  0  0  0  0  0  0  0  0  0  0
   -1.5213   55.0354   77.2888 H   0  0  0  0  0  0  0  0  0  0  0  0
   -1.9499   56.1515   75.9481 H   0  0  0  0  0  0  0  0  0  0  0  0
   -0.3594   55.3167   75.9481 H   0  0  0  0  0  0  0  0  0  0  0  0
   -1.3604   57.3400   81.1745 H   0  0  0  0  0  0  0  0  0  0  0  0
   -6.8992   63.9842   73.7112 H   0  0  0  0  0  0  0  0  0  0  0  0
   -5.8702   66.0251   74.6117 H   0  0  0  0  0  0  0  0  0  0  0  0
   -7.4359   66.7013   75.1034 H   0  0  0  0  0  0  0  0  0  0  0  0
   -5.5511   65.2258   76.7372 H   0  0  0  0  0  0  0  0  0  0  0  0
   -7.1435   65.8174   77.2405 H   0  0  0  0  0  0  0  0  0  0  0  0
   -9.4957   64.5688   77.0274 H   0  0  0  0  0  0  0  0  0  0  0  0
   -9.5102   65.6310   75.5789 H   0  0  0  0  0  0  0  0  0  0  0  0
  -10.4485   64.0993   75.5789 H   0  0  0  0  0  0  0  0  0  0  0  0
   -8.3777   62.4409   73.7642 H   0  0  0  0  0  0  0  0  0  0  0  0
   -8.3030   61.2249   76.5659 H   0  0  0  0  0  0  0  0  0  0  0  0
   -8.2958   60.3122   75.0233 H   0  0  0  0  0  0  0  0  0  0  0  0
   -6.3110   61.6322   74.3337 H   0  0  0  0  0  0  0  0  0  0  0  0
   -5.9156   62.3665   77.2968 H   0  0  0  0  0  0  0  0  0  0  0  0
   -4.8008   63.8854   74.9784 H   0  0  0  0  0  0  0  0  0  0  0  0
   -4.1254   63.5216   76.6355 H   0  0  0  0  0  0  0  0  0  0  0  0
   -4.0068   61.9298   74.1066 H   0  0  0  0  0  0  0  0  0  0  0  0
   -2.7684   62.2306   75.4296 H   0  0  0  0  0  0  0  0  0  0  0  0
   -3.8863   60.6053   76.8834 H   0  0  0  0  0  0  0  0  0  0  0  0
   -5.6235   60.1750   77.9209 H   0  0  0  0  0  0  0  0  0  0  0  0
   -7.1544   59.6082   77.1715 H   0  0  0  0  0  0  0  0  0  0  0  0
   -5.7068   58.5447   77.1715 H   0  0  0  0  0  0  0  0  0  0  0  0
   -6.8620   58.8048   74.6336 H   0  0  0  0  0  0  0  0  0  0  0  0
   -5.4773   59.5462   73.6948 H   0  0  0  0  0  0  0  0  0  0  0  0
   -5.4257   57.2393   75.6530 H   0  0  0  0  0  0  0  0  0  0  0  0
   -4.9007   57.3229   73.9001 H   0  0  0  0  0  0  0  0  0  0  0  0
   -2.8716   57.5006   74.6506 H   0  0  0  0  0  0  0  0  0  0  0  0
   -2.1259   59.7578   75.4801 H   0  0  0  0  0  0  0  0  0  0  0  0
   -3.2284   59.8009   74.0139 H   0  0  0  0  0  0  0  0  0  0  0  0
   -7.7584   67.2784   73.0524 H   0  0  0  0  0  0  0  0  0  0  0  0
   -9.3258   66.9475   73.7903 H   0  0  0  0  0  0  0  0  0  0  0  0
   -8.4957   63.5230   71.7072 H   0  0  0  0  0  0  0  0  0  0  0  0
  -10.4065   62.1825   75.8204 H   0  0  0  0  0  0  0  0  0  0  0  0
   -7.1308   63.7769   78.4465 H   0  0  0  0  0  0  0  0  0  0  0  0
    1.1674   57.7709   77.6082 H   0  0  0  0  0  0  0  0  0  0  0  0
    1.0150   60.0737   77.9756 H   0  0  0  0  0  0  0  0  0  0  0  0
    1.2779   59.8956   79.7575 H   0  0  0  0  0  0  0  0  0  0  0  0
    3.5822   59.8176   79.5561 H   0  0  0  0  0  0  0  0  0  0  0  0
    4.7920   59.2676   77.4401 H   0  0  0  0  0  0  0  0  0  0  0  0
    3.5247   56.8617   77.3237 H   0  0  0  0  0  0  0  0  0  0  0  0
    4.6823   57.2199   80.0662 H   0  0  0  0  0  0  0  0  0  0  0  0
    5.2089   56.1303   78.7387 H   0  0  0  0  0  0  0  0  0  0  0  0
    5.7128   57.8545   78.7387 H   0  0  0  0  0  0  0  0  0  0  0  0
    3.2808   61.8620   78.9625 H   0  0  0  0  0  0  0  0  0  0  0  0
    4.1971   57.2821   75.9245 H   0  0  0  0  0  0  0  0  0  0  0  0
    2.7425   56.2798   74.2941 H   0  0  0  0  0  0  0  0  0  0  0  0
    1.7521   56.7444   75.7295 H   0  0  0  0  0  0  0  0  0  0  0  0
    0.9497   58.7370   74.5999 H   0  0  0  0  0  0  0  0  0  0  0  0
    1.6017   59.3766   72.3584 H   0  0  0  0  0  0  0  0  0  0  0  0
    4.0729   59.7138   72.6225 H   0  0  0  0  0  0  0  0  0  0  0  0
    3.0594   60.6623   75.2043 H   0  0  0  0  0  0  0  0  0  0  0  0
    3.7316   61.5456   73.7920 H   0  0  0  0  0  0  0  0  0  0  0  0
    2.0114   61.0284   73.7920 H   0  0  0  0  0  0  0  0  0  0  0  0
   -0.0681   56.6558   74.1104 H   0  0  0  0  0  0  0  0  0  0  0  0
    3.0852   56.8714   72.5257 H   0  0  0  0  0  0  0  0  0  0  0  0
  2  1  1  0
  3  2  1  0
  4  3  1  0
  5  4  1  0
  6  5  1  0
  6  1  1  0
  7  5  1  0
  8  3  1  0
  9  1  1  0
 11 10  1  0
 12 11  1  0
 13 12  1  0
 14 13  1  0
 14 10  1  0
 14 15  1  1
 16 14  1  0
 17 16  1  0
 18 17  1  0
 19 18  1  0
 19 13  1  0
 20 19  1  0
 21 20  1  0
 22 21  1  0
 23 18  1  0
 23 22  1  0
 23 24  1  1
 25 23  1  0
 26 25  1  0
 27 26  1  0
 27  9  1  0
 28 27  1  0
 28 22  1  0
 30 29  2  0
 31 30  1  0
 32 31  1  0
 33 32  1  0
 33 10  1  0
 34 30  1  0
 34 33  2  0
 35 16  1  0
 13 36  1  1
 37  4  1  0
 38 37  1  0
 39 38  1  0
 40 39  1  0
 41 40  1  0
 42 41  1  0
 43 42  1  0
 43 38  1  0
 44 42  1  0
 45 40  1  0
 46 41  1  0
 47 46  1  0
 48 47  1  0
 49 48  1  0
 50 49  1  0
 51 50  1  0
 52 51  1  0
 52 47  1  0
 53 51  1  0
 54 49  1  0
 55 50  1  0
  1 56  1  6
  2 57  1  0
  2 58  1  0
  3 59  1  6
  4 60  1  6
  5 61  1  1
  7 62  1  0
  7 63  1  0
  7 64  1  0
  8 65  1  0
 10 66  1  6
 11 67  1  0
 11 68  1  0
 12 69  1  0
 12 70  1  0
 15 71  1  0
 15 72  1  0
 15 73  1  0
 16 74  1  6
 17 75  1  0
 17 76  1  0
 18 77  1  6
 19 78  1  1
 20 79  1  0
 20 80  1  0
 21 81  1  0
 21 82  1  0
 22 83  1  1
 24 84  1  0
 24 85  1  0
 24 86  1  0
 25 87  1  0
 25 88  1  0
 26 89  1  0
 26 90  1  0
 27 91  1  6
 28 92  1  0
 28 93  1  0
 32 94  1  0
 32 95  1  0
 34 96  1  0
 35 97  1  0
 36 98  1  0
 38 99  1  6
 39100  1  0
 39101  1  0
 40102  1  1
 41103  1  6
 42104  1  6
 44105  1  0
 44106  1  0
 44107  1  0
 45108  1  0
 47109  1  1
 48110  1  0
 48111  1  0
 49112  1  1
 50113  1  6
 51114  1  6
 53115  1  0
 53116  1  0
 53117  1  0
 54118  1  0
 55119  1  0
M  END
>  <score>  (5) 
-7.611

$$$$
=
     RDKit          3D

119126  0  0  0  0  0  0  0  0999 V2000
   -6.9030   60.9920   76.7220 C   0  0  1  0  0  0  0  0  0  0  0  0
   -8.3760   60.5930   76.6790 C   0  0  0  0  0  0  0  0  0  0  0  0
   -8.9060   60.4090   78.0940 C   0  0  1  0  0  0  0  0  0  0  0  0
   -8.6870   61.6900   78.9150 C   0  0  1  0  0  0  0  0  0  0  0  0
   -7.2050   62.1050   78.8680 C   0  0  2  0  0  0  0  0  0  0  0  0
   -6.6800   62.1440   77.5330 O   0  0  0  0  0  0  0  0  0  0  0  0
   -6.3230   61.2800   79.8030 C   0  0  0  0  0  0  0  0  0  0  0  0
  -10.2850   60.0370   78.0330 O   0  0  0  0  0  0  0  0  0  0  0  0
   -6.1020   59.9030   77.1770 O   0  0  0  0  0  0  0  0  0  0  0  0
    1.6100   59.5490   73.8170 C   0  0  1  0  0  0  0  0  0  0  0  0
    2.4930   59.4860   75.0810 C   0  0  0  0  0  0  0  0  0  0  0  0
    1.9110   60.5010   76.0680 C   0  0  0  0  0  0  0  0  0  0  0  0
    0.6580   61.0880   75.3880 C   0  0  1  0  0  0  0  0  0  0  0  0
    1.0070   60.9950   73.8550 C   0  0  1  0  0  0  0  0  0  0  0  0
    2.0780   62.0690   73.4870 C   0  0  0  0  0  0  0  0  0  0  0  0
   -0.2370   61.1220   72.9220 C   0  0  1  0  0  0  0  0  0  0  0  0
   -1.5440   61.4110   73.6640 C   0  0  0  0  0  0  0  0  0  0  0  0
   -1.7650   60.3280   74.7200 C   0  0  1  0  0  0  0  0  0  0  0  0
   -0.7010   60.4390   75.8380 C   0  0  1  0  0  0  0  0  0  0  0  0
   -0.6370   59.1040   76.5970 C   0  0  0  0  0  0  0  0  0  0  0  0
   -1.9680   58.3490   76.6080 C   0  0  0  0  0  0  0  0  0  0  0  0
   -3.2230   59.2480   76.5530 C   0  0  1  0  0  0  0  0  0  0  0  0
   -3.2120   60.2530   75.3370 C   0  0  1  0  0  0  0  0  0  0  0  0
   -3.6550   61.6630   75.8120 C   0  0  0  0  0  0  0  0  0  0  0  0
   -4.2220   59.7660   74.2650 C   0  0  0  0  0  0  0  0  0  0  0  0
   -5.6590   59.6220   74.7840 C   0  0  0  0  0  0  0  0  0  0  0  0
   -5.7620   58.9540   76.1620 C   0  0  1  0  0  0  0  0  0  0  0  0
   -4.4490   58.3000   76.5710 C   0  0  0  0  0  0  0  0  0  0  0  0
    4.0080   58.9470   69.6230 O   0  0  0  0  0  0  0  0  0  0  0  0
    3.3800   58.6920   70.6330 C   0  0  0  0  0  0  0  0  0  0  0  0
    2.9390   57.4630   71.0090 O   0  0  0  0  0  0  0  0  0  0  0  0
    2.2430   57.5770   72.2470 C   0  0  0  0  0  0  0  0  0  0  0  0
    2.3010   59.0230   72.5870 C   0  0  0  0  0  0  0  0  0  0  0  0
    2.9650   59.6740   71.6330 C   0  0  0  0  0  0  0  0  0  0  0  0
   -0.0540   62.1110   71.9070 O   0  0  0  0  0  0  0  0  0  0  0  0
    0.5690   62.4740   75.7600 O   0  0  0  0  0  0  0  0  0  0  0  0
   -9.4500   62.7600   78.3140 O   0  0  0  0  0  0  0  0  0  0  0  0
   -8.7810   64.0160   78.3300 C   0  0  1  0  0  0  0  0  0  0  0  0
   -8.9930   64.6760   76.9660 C   0  0  0  0  0  0  0  0  0  0  0  0
   -9.0330   66.1990   77.0870 C   0  0  1  0  0  0  0  0  0  0  0  0
   -8.0990   66.6760   78.2150 C   0  0  1  0  0  0  0  0  0  0  0  0
   -8.6020   66.0610   79.5450 C   0  0  2  0  0  0  0  0  0  0  0  0
   -9.3450   64.8410   79.3450 O   0  0  0  0  0  0  0  0  0  0  0  0
   -9.5340   67.0140   80.2850 C   0  0  0  0  0  0  0  0  0  0  0  0
   -8.7050   66.8080   75.8400 O   0  0  0  0  0  0  0  0  0  0  0  0
   -6.7660   66.1600   78.0080 O   0  0  0  0  0  0  0  0  0  0  0  0
   -5.7840   67.1470   77.7120 C   0  0  1  0  0  0  0  0  0  0  0  0
   -4.5210   66.9130   78.5360 C   0  0  0  0  0  0  0  0  0  0  0  0
   -3.8010   65.6540   78.0690 C   0  0  1  0  0  0  0  0  0  0  0  0
   -3.5430   65.7020   76.5590 C   0  0  1  0  0  0  0  0  0  0  0  0
   -4.8290   66.0000   75.7790 C   0  0  2  0  0  0  0  0  0  0  0  0
   -5.4910   67.1580   76.3100 O   0  0  0  0  0  0  0  0  0  0  0  0
   -5.7570   64.7960   75.6530 C   0  0  0  0  0  0  0  0  0  0  0  0
   -2.5560   65.5510   78.7660 O   0  0  0  0  0  0  0  0  0  0  0  0
   -2.5770   66.7490   76.3190 O   0  0  0  0  0  0  0  0  0  0  0  0
   -6.6078   61.2516   75.6946 H   0  0  0  0  0  0  0  0  0  0  0  0
   -8.9526   61.3817   76.1735 H   0  0  0  0  0  0  0  0  0  0  0  0
   -8.4781   59.6460   76.1287 H   0  0  0  0  0  0  0  0  0  0  0  0
   -8.3559   59.6035   78.6026 H   0  0  0  0  0  0  0  0  0  0  0  0
   -8.9964   61.5029   79.9539 H   0  0  0  0  0  0  0  0  0  0  0  0
   -7.1797   63.1372   79.2473 H   0  0  0  0  0  0  0  0  0  0  0  0
   -6.5749   61.5156   80.8475 H   0  0  0  0  0  0  0  0  0  0  0  0
   -6.4930   60.2092   79.6174 H   0  0  0  0  0  0  0  0  0  0  0  0
   -5.2659   61.5210   79.6174 H   0  0  0  0  0  0  0  0  0  0  0  0
  -10.6418   59.9408   78.9515 H   0  0  0  0  0  0  0  0  0  0  0  0
    0.7614   58.8499   73.7823 H   0  0  0  0  0  0  0  0  0  0  0  0
    2.4650   58.4753   75.5143 H   0  0  0  0  0  0  0  0  0  0  0  0
    3.5424   59.7166   74.8453 H   0  0  0  0  0  0  0  0  0  0  0  0
    1.6366   60.0035   77.0099 H   0  0  0  0  0  0  0  0  0  0  0  0
    2.6405   61.2868   76.3136 H   0  0  0  0  0  0  0  0  0  0  0  0
    2.5023   62.4945   74.4084 H   0  0  0  0  0  0  0  0  0  0  0  0
    2.8792   61.6005   72.8966 H   0  0  0  0  0  0  0  0  0  0  0  0
    1.6073   62.8689   72.8966 H   0  0  0  0  0  0  0  0  0  0  0  0
   -0.3258   60.1282   72.4590 H   0  0  0  0  0  0  0  0  0  0  0  0
   -1.4816   62.3949   74.1519 H   0  0  0  0  0  0  0  0  0  0  0  0
   -2.3831   61.4141   72.9527 H   0  0  0  0  0  0  0  0  0  0  0  0
   -1.6530   59.3806   74.1723 H   0  0  0  0  0  0  0  0  0  0  0  0
   -1.0138   61.1935   76.5748 H   0  0  0  0  0  0  0  0  0  0  0  0
    0.1218   58.4669   76.1192 H   0  0  0  0  0  0  0  0  0  0  0  0
   -0.3854   59.3356   77.6425 H   0  0  0  0  0  0  0  0  0  0  0  0
   -1.9886   57.6789   75.7359 H   0  0  0  0  0  0  0  0  0  0  0  0
   -2.0124   57.8135   77.5678 H   0  0  0  0  0  0  0  0  0  0  0  0
   -3.2572   59.9184   77.4245 H   0  0  0  0  0  0  0  0  0  0  0  0
   -3.6645   61.6933   76.9115 H   0  0  0  0  0  0  0  0  0  0  0  0
   -2.9503   62.4166   75.4305 H   0  0  0  0  0  0  0  0  0  0  0  0
   -4.6640   61.8782   75.4305 H   0  0  0  0  0  0  0  0  0  0  0  0
   -4.2239   60.4899   73.4368 H   0  0  0  0  0  0  0  0  0  0  0  0
   -3.8946   58.7643   73.9498 H   0  0  0  0  0  0  0  0  0  0  0  0
   -6.1042   60.6256   74.8522 H   0  0  0  0  0  0  0  0  0  0  0  0
   -6.1894   58.9701   74.0743 H   0  0  0  0  0  0  0  0  0  0  0  0
   -6.5498   58.1918   76.0705 H   0  0  0  0  0  0  0  0  0  0  0  0
   -4.5645   57.9078   77.5922 H   0  0  0  0  0  0  0  0  0  0  0  0
   -4.2469   57.5148   75.8276 H   0  0  0  0  0  0  0  0  0  0  0  0
    1.1995   57.2471   72.1361 H   0  0  0  0  0  0  0  0  0  0  0  0
    2.6892   56.9489   73.0321 H   0  0  0  0  0  0  0  0  0  0  0  0
    3.1649   60.7553   71.6032 H   0  0  0  0  0  0  0  0  0  0  0  0
    0.1089   62.9913   72.3296 H   0  0  0  0  0  0  0  0  0  0  0  0
    0.5640   62.5511   76.7470 H   0  0  0  0  0  0  0  0  0  0  0  0
   -7.7086   63.8794   78.5330 H   0  0  0  0  0  0  0  0  0  0  0  0
   -8.1671   64.3911   76.2977 H   0  0  0  0  0  0  0  0  0  0  0  0
   -9.9568   64.3342   76.5606 H   0  0  0  0  0  0  0  0  0  0  0  0
  -10.0559   66.5070   77.3494 H   0  0  0  0  0  0  0  0  0  0  0  0
   -8.0906   67.7758   78.2328 H   0  0  0  0  0  0  0  0  0  0  0  0
   -7.6903   65.8606   80.1270 H   0  0  0  0  0  0  0  0  0  0  0  0
   -9.4062   66.8833   81.3697 H   0  0  0  0  0  0  0  0  0  0  0  0
   -9.2920   68.0511   80.0096 H   0  0  0  0  0  0  0  0  0  0  0  0
  -10.5762   66.7952   80.0096 H   0  0  0  0  0  0  0  0  0  0  0  0
   -8.2421   67.6676   76.0042 H   0  0  0  0  0  0  0  0  0  0  0  0
   -6.1866   68.1340   77.9836 H   0  0  0  0  0  0  0  0  0  0  0  0
   -3.8496   67.7768   78.4216 H   0  0  0  0  0  0  0  0  0  0  0  0
   -4.8045   66.7883   79.5915 H   0  0  0  0  0  0  0  0  0  0  0  0
   -4.4319   64.7785   78.2824 H   0  0  0  0  0  0  0  0  0  0  0  0
   -3.1706   64.7249   76.2174 H   0  0  0  0  0  0  0  0  0  0  0  0
   -4.5294   66.2299   74.7458 H   0  0  0  0  0  0  0  0  0  0  0  0
   -6.0324   64.4387   76.6563 H   0  0  0  0  0  0  0  0  0  0  0  0
   -6.6653   65.0888   75.1059 H   0  0  0  0  0  0  0  0  0  0  0  0
   -5.2426   63.9922   75.1059 H   0  0  0  0  0  0  0  0  0  0  0  0
   -2.7220   65.5647   79.7419 H   0  0  0  0  0  0  0  0  0  0  0  0
   -2.2512   67.1021   77.1846 H   0  0  0  0  0  0  0  0  0  0  0  0
  2  1  1  0
  3  2  1  0
  4  3  1  0
  5  4  1  0
  6  5  1  0
  6  1  1  0
  7  5  1  0
  8  3  1  0
  9  1  1  0
 11 10  1  0
 12 11  1  0
 13 12  1  0
 14 13  1  0
 14 10  1  0
 14 15  1  6
 16 14  1  0
 17 16  1  0
 18 17  1  0
 19 18  1  0
 19 13  1  0
 20 19  1  0
 21 20  1  0
 22 21  1  0
 23 18  1  0
 23 22  1  0
 23 24  1  1
 25 23  1  0
 26 25  1  0
 27 26  1  0
 27  9  1  0
 28 27  1  0
 28 22  1  0
 30 29  2  0
 31 30  1  0
 32 31  1  0
 33 32  1  0
 33 10  1  0
 34 30  1  0
 34 33  2  0
 35 16  1  0
 13 36  1  1
 37  4  1  0
 38 37  1  0
 39 38  1  0
 40 39  1  0
 41 40  1  0
 42 41  1  0
 43 42  1  0
 43 38  1  0
 44 42  1  0
 45 40  1  0
 46 41  1  0
 47 46  1  0
 48 47  1  0
 49 48  1  0
 50 49  1  0
 51 50  1  0
 52 51  1  0
 52 47  1  0
 53 51  1  0
 54 49  1  0
 55 50  1  0
  1 56  1  6
  2 57  1  0
  2 58  1  0
  3 59  1  1
  4 60  1  1
  5 61  1  1
  7 62  1  0
  7 63  1  0
  7 64  1  0
  8 65  1  0
 10 66  1  1
 11 67  1  0
 11 68  1  0
 12 69  1  0
 12 70  1  0
 15 71  1  0
 15 72  1  0
 15 73  1  0
 16 74  1  6
 17 75  1  0
 17 76  1  0
 18 77  1  6
 19 78  1  1
 20 79  1  0
 20 80  1  0
 21 81  1  0
 21 82  1  0
 22 83  1  1
 24 84  1  0
 24 85  1  0
 24 86  1  0
 25 87  1  0
 25 88  1  0
 26 89  1  0
 26 90  1  0
 27 91  1  6
 28 92  1  0
 28 93  1  0
 32 94  1  0
 32 95  1  0
 34 96  1  0
 35 97  1  0
 36 98  1  0
 38 99  1  1
 39100  1  0
 39101  1  0
 40102  1  1
 41103  1  1
 42104  1  1
 44105  1  0
 44106  1  0
 44107  1  0
 45108  1  0
 47109  1  1
 48110  1  0
 48111  1  0
 49112  1  6
 50113  1  6
 51114  1  6
 53115  1  0
 53116  1  0
 53117  1  0
 54118  1  0
 55119  1  0
M  END
>  <score>  (6) 
-7.519

$$$$
=
     RDKit          3D

119126  0  0  0  0  0  0  0  0999 V2000
   -0.1440   58.5810   76.0040 C   0  0  1  0  0  0  0  0  0  0  0  0
    0.9420   58.2200   77.0140 C   0  0  0  0  0  0  0  0  0  0  0  0
    1.6490   56.9430   76.5830 C   0  0  1  0  0  0  0  0  0  0  0  0
    2.2220   57.1050   75.1660 C   0  0  1  0  0  0  0  0  0  0  0  0
    1.1150   57.5470   74.1920 C   0  0  2  0  0  0  0  0  0  0  0  0
    0.3660   58.6720   74.6740 O   0  0  0  0  0  0  0  0  0  0  0  0
    0.2040   56.4000   73.7610 C   0  0  0  0  0  0  0  0  0  0  0  0
    2.6620   56.6230   77.5410 O   0  0  0  0  0  0  0  0  0  0  0  0
   -1.2140   57.6400   76.0610 O   0  0  0  0  0  0  0  0  0  0  0  0
   -6.4930   64.1900   75.7180 C   0  0  1  0  0  0  0  0  0  0  0  0
   -5.5180   65.3780   75.8590 C   0  0  0  0  0  0  0  0  0  0  0  0
   -4.5200   64.9930   76.9540 C   0  0  0  0  0  0  0  0  0  0  0  0
   -4.8900   63.5590   77.3850 C   0  0  1  0  0  0  0  0  0  0  0  0
   -6.4420   63.4970   77.1230 C   0  0  1  0  0  0  0  0  0  0  0  0
   -7.1960   64.3370   78.2010 C   0  0  0  0  0  0  0  0  0  0  0  0
   -7.0090   62.0440   77.0670 C   0  0  1  0  0  0  0  0  0  0  0  0
   -5.9720   60.9610   77.3730 C   0  0  0  0  0  0  0  0  0  0  0  0
   -4.7900   61.1200   76.4180 C   0  0  1  0  0  0  0  0  0  0  0  0
   -4.0220   62.4290   76.7220 C   0  0  1  0  0  0  0  0  0  0  0  0
   -3.1750   62.8040   75.4960 C   0  0  0  0  0  0  0  0  0  0  0  0
   -2.7240   61.5940   74.6770 C   0  0  0  0  0  0  0  0  0  0  0  0
   -2.5280   60.2960   75.4920 C   0  0  1  0  0  0  0  0  0  0  0  0
   -3.7980   59.9000   76.3390 C   0  0  1  0  0  0  0  0  0  0  0  0
   -3.3680   59.4790   77.7710 C   0  0  0  0  0  0  0  0  0  0  0  0
   -4.4980   58.6880   75.6710 C   0  0  0  0  0  0  0  0  0  0  0  0
   -3.5950   57.4570   75.5130 C   0  0  0  0  0  0  0  0  0  0  0  0
   -2.1800   57.7790   75.0150 C   0  0  1  0  0  0  0  0  0  0  0  0
   -2.0790   59.2040   74.4880 C   0  0  0  0  0  0  0  0  0  0  0  0
  -10.4580   64.6200   72.9250 O   0  0  0  0  0  0  0  0  0  0  0  0
   -9.6430   64.8330   73.8030 C   0  0  0  0  0  0  0  0  0  0  0  0
   -9.6890   65.8510   74.7020 O   0  0  0  0  0  0  0  0  0  0  0  0
   -8.5560   65.7620   75.5630 C   0  0  0  0  0  0  0  0  0  0  0  0
   -7.8030   64.5740   75.0830 C   0  0  0  0  0  0  0  0  0  0  0  0
   -8.4430   64.0350   74.0460 C   0  0  0  0  0  0  0  0  0  0  0  0
   -8.1310   61.8680   77.9320 O   0  0  0  0  0  0  0  0  0  0  0  0
   -4.6530   63.4540   78.7980 O   0  0  0  0  0  0  0  0  0  0  0  0
    3.2180   58.1530   75.1860 O   0  0  0  0  0  0  0  0  0  0  0  0
    3.1800   58.9970   74.0410 C   0  0  1  0  0  0  0  0  0  0  0  0
    4.4020   59.9150   74.0970 C   0  0  0  0  0  0  0  0  0  0  0  0
    4.8930   60.2710   72.6940 C   0  0  1  0  0  0  0  0  0  0  0  0
    3.7090   60.3590   71.7130 C   0  0  1  0  0  0  0  0  0  0  0  0
    3.0270   58.9680   71.6610 C   0  0  2  0  0  0  0  0  0  0  0  0
    3.2420   58.2000   72.8620 O   0  0  0  0  0  0  0  0  0  0  0  0
    3.5630   58.1240   70.5100 C   0  0  0  0  0  0  0  0  0  0  0  0
    5.6450   61.4820   72.7200 O   0  0  0  0  0  0  0  0  0  0  0  0
    2.7150   61.2790   72.2150 O   0  0  0  0  0  0  0  0  0  0  0  0
    1.5630   61.4190   71.3910 C   0  0  1  0  0  0  0  0  0  0  0  0
    0.4590   62.1670   72.1330 C   0  0  0  0  0  0  0  0  0  0  0  0
    0.8400   63.6290   72.3310 C   0  0  1  0  0  0  0  0  0  0  0  0
    1.2240   64.2780   70.9960 C   0  0  1  0  0  0  0  0  0  0  0  0
    2.2910   63.4570   70.2610 C   0  0  2  0  0  0  0  0  0  0  0  0
    1.9000   62.0790   70.1650 O   0  0  0  0  0  0  0  0  0  0  0  0
    3.6950   63.6340   70.8310 C   0  0  0  0  0  0  0  0  0  0  0  0
   -0.2750   64.3220   72.8980 O   0  0  0  0  0  0  0  0  0  0  0  0
    0.0280   64.3490   70.1900 O   0  0  0  0  0  0  0  0  0  0  0  0
   -0.5245   59.5758   76.2790 H   0  0  0  0  0  0  0  0  0  0  0  0
    1.6732   59.0398   77.0714 H   0  0  0  0  0  0  0  0  0  0  0  0
    0.4805   58.0624   78.0000 H   0  0  0  0  0  0  0  0  0  0  0  0
    0.9344   56.1075   76.5471 H   0  0  0  0  0  0  0  0  0  0  0  0
    2.6495   56.1437   74.8447 H   0  0  0  0  0  0  0  0  0  0  0  0
    1.6420   57.8825   73.2866 H   0  0  0  0  0  0  0  0  0  0  0  0
   -0.1968   55.8953   74.6524 H   0  0  0  0  0  0  0  0  0  0  0  0
   -0.6270   56.7978   73.1600 H   0  0  0  0  0  0  0  0  0  0  0  0
    0.7796   55.6806   73.1600 H   0  0  0  0  0  0  0  0  0  0  0  0
    2.2996   56.7375   78.4552 H   0  0  0  0  0  0  0  0  0  0  0  0
   -6.2228   63.4251   74.9751 H   0  0  0  0  0  0  0  0  0  0  0  0
   -4.9915   65.5524   74.9091 H   0  0  0  0  0  0  0  0  0  0  0  0
   -6.0534   66.3039   76.1161 H   0  0  0  0  0  0  0  0  0  0  0  0
   -3.4929   65.0206   76.5612 H   0  0  0  0  0  0  0  0  0  0  0  0
   -4.5648   65.6918   77.8023 H   0  0  0  0  0  0  0  0  0  0  0  0
   -6.8947   64.0013   79.2042 H   0  0  0  0  0  0  0  0  0  0  0  0
   -6.9440   65.4008   78.0792 H   0  0  0  0  0  0  0  0  0  0  0  0
   -8.2807   64.2009   78.0792 H   0  0  0  0  0  0  0  0  0  0  0  0
   -7.3259   61.9197   76.0210 H   0  0  0  0  0  0  0  0  0  0  0  0
   -5.6241   61.0664   78.4112 H   0  0  0  0  0  0  0  0  0  0  0  0
   -6.4238   59.9665   77.2428 H   0  0  0  0  0  0  0  0  0  0  0  0
   -5.2471   61.1631   75.4184 H   0  0  0  0  0  0  0  0  0  0  0  0
   -3.3091   62.2608   77.5426 H   0  0  0  0  0  0  0  0  0  0  0  0
   -3.7725   63.4613   74.8471 H   0  0  0  0  0  0  0  0  0  0  0  0
   -2.2671   63.3012   75.8681 H   0  0  0  0  0  0  0  0  0  0  0  0
   -3.4831   61.4016   73.9045 H   0  0  0  0  0  0  0  0  0  0  0  0
   -1.7380   61.8510   74.2625 H   0  0  0  0  0  0  0  0  0  0  0  0
   -1.7539   60.4353   76.2610 H   0  0  0  0  0  0  0  0  0  0  0  0
   -3.9497   60.0485   78.5108 H   0  0  0  0  0  0  0  0  0  0  0  0
   -3.5532   58.4034   77.9081 H   0  0  0  0  0  0  0  0  0  0  0  0
   -2.2966   59.6869   77.9081 H   0  0  0  0  0  0  0  0  0  0  0  0
   -5.3640   58.4053   76.2876 H   0  0  0  0  0  0  0  0  0  0  0  0
   -4.7860   59.0046   74.6577 H   0  0  0  0  0  0  0  0  0  0  0  0
   -3.5125   56.9610   76.4914 H   0  0  0  0  0  0  0  0  0  0  0  0
   -4.0620   56.8164   74.7504 H   0  0  0  0  0  0  0  0  0  0  0  0
   -1.9741   57.0624   74.2063 H   0  0  0  0  0  0  0  0  0  0  0  0
   -1.0302   59.3965   74.2179 H   0  0  0  0  0  0  0  0  0  0  0  0
   -2.7641   59.2685   73.6298 H   0  0  0  0  0  0  0  0  0  0  0  0
   -7.9385   66.6690   75.4850 H   0  0  0  0  0  0  0  0  0  0  0  0
   -8.8456   65.6692   76.6201 H   0  0  0  0  0  0  0  0  0  0  0  0
   -8.1255   63.1495   73.4759 H   0  0  0  0  0  0  0  0  0  0  0  0
   -7.8316   61.9150   78.8745 H   0  0  0  0  0  0  0  0  0  0  0  0
   -5.4379   63.8018   79.2910 H   0  0  0  0  0  0  0  0  0  0  0  0
    2.2517   59.5870   74.0265 H   0  0  0  0  0  0  0  0  0  0  0  0
    4.1315   60.8399   74.6275 H   0  0  0  0  0  0  0  0  0  0  0  0
    5.2099   59.3864   74.6242 H   0  0  0  0  0  0  0  0  0  0  0  0
    5.5604   59.4719   72.3391 H   0  0  0  0  0  0  0  0  0  0  0  0
    4.0802   60.6870   70.7308 H   0  0  0  0  0  0  0  0  0  0  0  0
    1.9558   59.1831   71.5338 H   0  0  0  0  0  0  0  0  0  0  0  0
    4.1116   57.2601   70.9133 H   0  0  0  0  0  0  0  0  0  0  0  0
    2.7239   57.7700   69.8931 H   0  0  0  0  0  0  0  0  0  0  0  0
    4.2402   58.7330   69.8931 H   0  0  0  0  0  0  0  0  0  0  0  0
    5.8101   61.7478   73.6592 H   0  0  0  0  0  0  0  0  0  0  0  0
    1.1850   60.4158   71.1446 H   0  0  0  0  0  0  0  0  0  0  0  0
   -0.4709   62.1120   71.5480 H   0  0  0  0  0  0  0  0  0  0  0  0
    0.3167   61.7013   73.1194 H   0  0  0  0  0  0  0  0  0  0  0  0
    1.7082   63.6865   73.0040 H   0  0  0  0  0  0  0  0  0  0  0  0
    1.6451   65.2776   71.1792 H   0  0  0  0  0  0  0  0  0  0  0  0
    2.3530   63.8584   69.2387 H   0  0  0  0  0  0  0  0  0  0  0  0
    3.6480   63.6281   71.9300 H   0  0  0  0  0  0  0  0  0  0  0  0
    4.3370   62.8097   70.4870 H   0  0  0  0  0  0  0  0  0  0  0  0
    4.1123   64.5919   70.4870 H   0  0  0  0  0  0  0  0  0  0  0  0
   -0.2180   64.2866   73.8857 H   0  0  0  0  0  0  0  0  0  0  0  0
   -0.7654   64.3961   70.7803 H   0  0  0  0  0  0  0  0  0  0  0  0
  2  1  1  0
  3  2  1  0
  4  3  1  0
  5  4  1  0
  6  5  1  0
  6  1  1  0
  7  5  1  0
  8  3  1  0
  9  1  1  0
 11 10  1  0
 12 11  1  0
 13 12  1  0
 14 13  1  0
 14 10  1  0
 14 15  1  1
 16 14  1  0
 17 16  1  0
 18 17  1  0
 19 18  1  0
 19 13  1  0
 20 19  1  0
 21 20  1  0
 22 21  1  0
 23 18  1  0
 23 22  1  0
 23 24  1  1
 25 23  1  0
 26 25  1  0
 27 26  1  0
 27  9  1  0
 28 27  1  0
 28 22  1  0
 30 29  2  0
 31 30  1  0
 32 31  1  0
 33 32  1  0
 33 10  1  0
 34 30  1  0
 34 33  2  0
 35 16  1  0
 13 36  1  1
 37  4  1  0
 38 37  1  0
 39 38  1  0
 40 39  1  0
 41 40  1  0
 42 41  1  0
 43 42  1  0
 43 38  1  0
 44 42  1  0
 45 40  1  0
 46 41  1  0
 47 46  1  0
 48 47  1  0
 49 48  1  0
 50 49  1  0
 51 50  1  0
 52 51  1  0
 52 47  1  0
 53 51  1  0
 54 49  1  0
 55 50  1  0
  1 56  1  1
  2 57  1  0
  2 58  1  0
  3 59  1  6
  4 60  1  6
  5 61  1  6
  7 62  1  0
  7 63  1  0
  7 64  1  0
  8 65  1  0
 10 66  1  6
 11 67  1  0
 11 68  1  0
 12 69  1  0
 12 70  1  0
 15 71  1  0
 15 72  1  0
 15 73  1  0
 16 74  1  6
 17 75  1  0
 17 76  1  0
 18 77  1  6
 19 78  1  1
 20 79  1  0
 20 80  1  0
 21 81  1  0
 21 82  1  0
 22 83  1  1
 24 84  1  0
 24 85  1  0
 24 86  1  0
 25 87  1  0
 25 88  1  0
 26 89  1  0
 26 90  1  0
 27 91  1  6
 28 92  1  0
 28 93  1  0
 32 94  1  0
 32 95  1  0
 34 96  1  0
 35 97  1  0
 36 98  1  0
 38 99  1  6
 39100  1  0
 39101  1  0
 40102  1  6
 41103  1  6
 42104  1  6
 44105  1  0
 44106  1  0
 44107  1  0
 45108  1  0
 47109  1  6
 48110  1  0
 48111  1  0
 49112  1  1
 50113  1  1
 51114  1  6
 53115  1  0
 53116  1  0
 53117  1  0
 54118  1  0
 55119  1  0
M  END
>  <score>  (7) 
-6.863

$$$$
=
     RDKit          3D

119126  0  0  0  0  0  0  0  0999 V2000
    0.2720   60.6030   77.0090 C   0  0  1  0  0  0  0  0  0  0  0  0
    1.0600   59.4350   77.5930 C   0  0  0  0  0  0  0  0  0  0  0  0
    0.6510   58.1380   76.9080 C   0  0  1  0  0  0  0  0  0  0  0  0
    0.8480   58.2540   75.3880 C   0  0  1  0  0  0  0  0  0  0  0  0
    0.1040   59.4900   74.8490 C   0  0  2  0  0  0  0  0  0  0  0  0
    0.3970   60.6840   75.5900 O   0  0  0  0  0  0  0  0  0  0  0  0
   -1.3990   59.2670   74.7000 C   0  0  0  0  0  0  0  0  0  0  0  0
    1.4010   57.0560   77.4670 O   0  0  0  0  0  0  0  0  0  0  0  0
   -1.1030   60.5170   77.3820 O   0  0  0  0  0  0  0  0  0  0  0  0
   -8.6620   64.2190   77.1860 C   0  0  1  0  0  0  0  0  0  0  0  0
   -9.5970   63.0010   77.0370 C   0  0  0  0  0  0  0  0  0  0  0  0
   -8.9440   62.0750   76.0070 C   0  0  0  0  0  0  0  0  0  0  0  0
   -7.6050   62.7390   75.6250 C   0  0  1  0  0  0  0  0  0  0  0  0
   -7.9000   64.2750   75.8170 C   0  0  1  0  0  0  0  0  0  0  0  0
   -8.8260   64.7860   74.6700 C   0  0  0  0  0  0  0  0  0  0  0  0
   -6.6120   65.1510   75.9130 C   0  0  1  0  0  0  0  0  0  0  0  0
   -5.3130   64.3710   75.7040 C   0  0  0  0  0  0  0  0  0  0  0  0
   -5.2590   63.2160   76.7050 C   0  0  1  0  0  0  0  0  0  0  0  0
   -6.3490   62.1670   76.3770 C   0  0  1  0  0  0  0  0  0  0  0  0
   -6.5950   61.3020   77.6230 C   0  0  0  0  0  0  0  0  0  0  0  0
   -5.3610   61.1590   78.5150 C   0  0  0  0  0  0  0  0  0  0  0  0
   -4.0100   61.2270   77.7700 C   0  0  1  0  0  0  0  0  0  0  0  0
   -3.8570   62.5230   76.8830 C   0  0  1  0  0  0  0  0  0  0  0  0
   -3.2750   62.1480   75.4930 C   0  0  0  0  0  0  0  0  0  0  0  0
   -2.8660   63.4980   77.5730 C   0  0  0  0  0  0  0  0  0  0  0  0
   -1.4780   62.8960   77.8270 C   0  0  0  0  0  0  0  0  0  0  0  0
   -1.5070   61.4630   78.3750 C   0  0  1  0  0  0  0  0  0  0  0  0
   -2.9020   61.0670   78.8410 C   0  0  0  0  0  0  0  0  0  0  0  0
  -10.4790   68.6490   78.0680 O   0  0  0  0  0  0  0  0  0  0  0  0
  -10.1970   67.4740   78.2110 C   0  0  0  0  0  0  0  0  0  0  0  0
  -10.4770   66.7150   79.3020 O   0  0  0  0  0  0  0  0  0  0  0  0
   -9.9830   65.3950   79.0900 C   0  0  0  0  0  0  0  0  0  0  0  0
   -9.3580   65.4330   77.7420 C   0  0  0  0  0  0  0  0  0  0  0  0
   -9.4810   66.6580   77.2320 C   0  0  0  0  0  0  0  0  0  0  0  0
   -6.6400   66.2540   75.0060 O   0  0  0  0  0  0  0  0  0  0  0  0
   -7.3740   62.4830   74.2300 O   0  0  0  0  0  0  0  0  0  0  0  0
    2.2540   58.4500   75.1170 O   0  0  0  0  0  0  0  0  0  0  0  0
    2.5110   59.1070   73.8810 C   0  0  1  0  0  0  0  0  0  0  0  0
    3.7690   59.9600   74.0570 C   0  0  0  0  0  0  0  0  0  0  0  0
    4.5530   60.0670   72.7500 C   0  0  1  0  0  0  0  0  0  0  0  0
    3.5960   60.0610   71.5430 C   0  0  1  0  0  0  0  0  0  0  0  0
    2.8280   58.7150   71.5490 C   0  0  2  0  0  0  0  0  0  0  0  0
    2.7400   58.1330   72.8660 O   0  0  0  0  0  0  0  0  0  0  0  0
    3.5110   57.6770   70.6660 C   0  0  0  0  0  0  0  0  0  0  0  0
    5.3810   61.2290   72.7580 O   0  0  0  0  0  0  0  0  0  0  0  0
    2.6010   61.0960   71.6920 O   0  0  0  0  0  0  0  0  0  0  0  0
    2.9080   62.3180   71.0290 C   0  0  1  0  0  0  0  0  0  0  0  0
    1.8600   62.6300   69.9650 C   0  0  0  0  0  0  0  0  0  0  0  0
    0.5300   62.9920   70.6120 C   0  0  1  0  0  0  0  0  0  0  0  0
    0.7090   64.1160   71.6390 C   0  0  1  0  0  0  0  0  0  0  0  0
    1.8150   63.7820   72.6480 C   0  0  2  0  0  0  0  0  0  0  0  0
    3.0200   63.3880   71.9750 O   0  0  0  0  0  0  0  0  0  0  0  0
    1.3810   62.7810   73.7160 C   0  0  0  0  0  0  0  0  0  0  0  0
   -0.3780   63.4150   69.5910 O   0  0  0  0  0  0  0  0  0  0  0  0
    1.0640   65.3130   70.9110 O   0  0  0  0  0  0  0  0  0  0  0  0
    0.7021   61.5244   77.4286 H   0  0  0  0  0  0  0  0  0  0  0  0
    2.1353   59.6064   77.4367 H   0  0  0  0  0  0  0  0  0  0  0  0
    0.8477   59.3579   78.6696 H   0  0  0  0  0  0  0  0  0  0  0  0
   -0.4173   57.9400   77.0799 H   0  0  0  0  0  0  0  0  0  0  0  0
    0.4650   57.3403   74.9100 H   0  0  0  0  0  0  0  0  0  0  0  0
    0.4968   59.6444   73.8332 H   0  0  0  0  0  0  0  0  0  0  0  0
   -1.8601   59.1986   75.6964 H   0  0  0  0  0  0  0  0  0  0  0  0
   -1.8417   60.1093   74.1481 H   0  0  0  0  0  0  0  0  0  0  0  0
   -1.5781   58.3325   74.1481 H   0  0  0  0  0  0  0  0  0  0  0  0
    1.3662   57.1062   78.4551 H   0  0  0  0  0  0  0  0  0  0  0  0
   -7.8978   64.1502   77.9742 H   0  0  0  0  0  0  0  0  0  0  0  0
   -9.7022   62.4825   78.0014 H   0  0  0  0  0  0  0  0  0  0  0  0
  -10.6026   63.3086   76.7143 H   0  0  0  0  0  0  0  0  0  0  0  0
   -8.7666   61.0816   76.4447 H   0  0  0  0  0  0  0  0  0  0  0  0
   -9.5887   61.9338   75.1270 H   0  0  0  0  0  0  0  0  0  0  0  0
   -9.7112   65.2745   75.1035 H   0  0  0  0  0  0  0  0  0  0  0  0
   -8.2759   65.5083   74.0489 H   0  0  0  0  0  0  0  0  0  0  0  0
   -9.1438   63.9355   74.0489 H   0  0  0  0  0  0  0  0  0  0  0  0
   -6.6174   65.5226   76.9483 H   0  0  0  0  0  0  0  0  0  0  0  0
   -5.2830   63.9725   74.6792 H   0  0  0  0  0  0  0  0  0  0  0  0
   -4.4510   65.0367   75.8580 H   0  0  0  0  0  0  0  0  0  0  0  0
   -5.4548   63.6856   77.6803 H   0  0  0  0  0  0  0  0  0  0  0  0
   -5.9839   61.4817   75.5978 H   0  0  0  0  0  0  0  0  0  0  0  0
   -7.4010   61.7621   78.2136 H   0  0  0  0  0  0  0  0  0  0  0  0
   -6.8610   60.2941   77.2718 H   0  0  0  0  0  0  0  0  0  0  0  0
   -5.3819   61.9683   79.2597 H   0  0  0  0  0  0  0  0  0  0  0  0
   -5.4173   60.1554   78.9617 H   0  0  0  0  0  0  0  0  0  0  0  0
   -3.9344   60.4143   77.0326 H   0  0  0  0  0  0  0  0  0  0  0  0
   -2.3572   61.5567   75.6272 H   0  0  0  0  0  0  0  0  0  0  0  0
   -4.0142   61.5559   74.9336 H   0  0  0  0  0  0  0  0  0  0  0  0
   -3.0413   63.0659   74.9336 H   0  0  0  0  0  0  0  0  0  0  0  0
   -2.7475   64.3833   76.9310 H   0  0  0  0  0  0  0  0  0  0  0  0
   -3.2925   63.7440   78.5567 H   0  0  0  0  0  0  0  0  0  0  0  0
   -0.9244   62.8911   76.8765 H   0  0  0  0  0  0  0  0  0  0  0  0
   -0.9977   63.5196   78.5954 H   0  0  0  0  0  0  0  0  0  0  0  0
   -0.8076   61.4491   79.2239 H   0  0  0  0  0  0  0  0  0  0  0  0
   -2.8737   60.0117   79.1502 H   0  0  0  0  0  0  0  0  0  0  0  0
   -3.1618   61.7508   79.6625 H   0  0  0  0  0  0  0  0  0  0  0  0
   -9.2374   65.1332   79.8552 H   0  0  0  0  0  0  0  0  0  0  0  0
  -10.7793   64.6390   79.1563 H   0  0  0  0  0  0  0  0  0  0  0  0
   -9.1109   66.9941   76.2522 H   0  0  0  0  0  0  0  0  0  0  0  0
   -6.6615   67.1014   75.5175 H   0  0  0  0  0  0  0  0  0  0  0  0
   -6.7139   61.7515   74.1336 H   0  0  0  0  0  0  0  0  0  0  0  0
    1.6548   59.7340   73.5914 H   0  0  0  0  0  0  0  0  0  0  0  0
    3.4755   60.9689   74.3827 H   0  0  0  0  0  0  0  0  0  0  0  0
    4.4118   59.4804   74.8098 H   0  0  0  0  0  0  0  0  0  0  0  0
    5.2098   59.1894   72.6582 H   0  0  0  0  0  0  0  0  0  0  0  0
    4.1785   60.2136   70.6225 H   0  0  0  0  0  0  0  0  0  0  0  0
    1.8236   58.9606   71.1737 H   0  0  0  0  0  0  0  0  0  0  0  0
    4.0055   56.9255   71.2990 H   0  0  0  0  0  0  0  0  0  0  0  0
    2.7599   57.1846   70.0309 H   0  0  0  0  0  0  0  0  0  0  0  0
    4.2605   58.1719   70.0309 H   0  0  0  0  0  0  0  0  0  0  0  0
    5.5695   61.4935   73.6932 H   0  0  0  0  0  0  0  0  0  0  0  0
    3.8791   62.2083   70.5241 H   0  0  0  0  0  0  0  0  0  0  0  0
    2.2066   63.4761   69.3535 H   0  0  0  0  0  0  0  0  0  0  0  0
    1.7173   61.7389   69.3361 H   0  0  0  0  0  0  0  0  0  0  0  0
    0.1335   62.1093   71.1350 H   0  0  0  0  0  0  0  0  0  0  0  0
   -0.2243   64.2508   72.2054 H   0  0  0  0  0  0  0  0  0  0  0  0
    2.0303   64.7072   73.2027 H   0  0  0  0  0  0  0  0  0  0  0  0
    1.5654   63.2062   74.7136 H   0  0  0  0  0  0  0  0  0  0  0  0
    0.3085   62.5651   73.6019 H   0  0  0  0  0  0  0  0  0  0  0  0
    1.9565   61.8505   73.6019 H   0  0  0  0  0  0  0  0  0  0  0  0
   -1.1914   63.7939   70.0091 H   0  0  0  0  0  0  0  0  0  0  0  0
    1.2787   66.0371   71.5511 H   0  0  0  0  0  0  0  0  0  0  0  0
  2  1  1  0
  3  2  1  0
  4  3  1  0
  5  4  1  0
  6  5  1  0
  6  1  1  0
  7  5  1  0
  8  3  1  0
  9  1  1  0
 11 10  1  0
 12 11  1  0
 13 12  1  0
 14 13  1  0
 14 10  1  0
 14 15  1  6
 16 14  1  0
 17 16  1  0
 18 17  1  0
 19 18  1  0
 19 13  1  0
 20 19  1  0
 21 20  1  0
 22 21  1  0
 23 18  1  0
 23 22  1  0
 23 24  1  6
 25 23  1  0
 26 25  1  0
 27 26  1  0
 27  9  1  0
 28 27  1  0
 28 22  1  0
 30 29  2  0
 31 30  1  0
 32 31  1  0
 33 32  1  0
 33 10  1  0
 34 30  1  0
 34 33  2  0
 35 16  1  0
 13 36  1  6
 37  4  1  0
 38 37  1  0
 39 38  1  0
 40 39  1  0
 41 40  1  0
 42 41  1  0
 43 42  1  0
 43 38  1  0
 44 42  1  0
 45 40  1  0
 46 41  1  0
 47 46  1  0
 48 47  1  0
 49 48  1  0
 50 49  1  0
 51 50  1  0
 52 51  1  0
 52 47  1  0
 53 51  1  0
 54 49  1  0
 55 50  1  0
  1 56  1  1
  2 57  1  0
  2 58  1  0
  3 59  1  6
  4 60  1  6
  5 61  1  6
  7 62  1  0
  7 63  1  0
  7 64  1  0
  8 65  1  0
 10 66  1  1
 11 67  1  0
 11 68  1  0
 12 69  1  0
 12 70  1  0
 15 71  1  0
 15 72  1  0
 15 73  1  0
 16 74  1  1
 17 75  1  0
 17 76  1  0
 18 77  1  1
 19 78  1  6
 20 79  1  0
 20 80  1  0
 21 81  1  0
 21 82  1  0
 22 83  1  6
 24 84  1  0
 24 85  1  0
 24 86  1  0
 25 87  1  0
 25 88  1  0
 26 89  1  0
 26 90  1  0
 27 91  1  1
 28 92  1  0
 28 93  1  0
 32 94  1  0
 32 95  1  0
 34 96  1  0
 35 97  1  0
 36 98  1  0
 38 99  1  6
 39100  1  0
 39101  1  0
 40102  1  6
 41103  1  6
 42104  1  6
 44105  1  0
 44106  1  0
 44107  1  0
 45108  1  0
 47109  1  6
 48110  1  0
 48111  1  0
 49112  1  1
 50113  1  1
 51114  1  1
 53115  1  0
 53116  1  0
 53117  1  0
 54118  1  0
 55119  1  0
M  END
>  <score>  (8) 
-6.535

$$$$
