=
     RDKit          3D

 19 19  0  0  0  0  0  0  0  0999 V2000
    4.6460   70.4320   67.7440 C   0  0  0  0  0  0  0  0  0  0  0  0
    4.9210   69.9370   66.4590 C   0  0  0  0  0  0  0  0  0  0  0  0
    3.9750   69.1610   65.7880 C   0  0  0  0  0  0  0  0  0  0  0  0
    2.7520   68.8770   66.3950 C   0  0  0  0  0  0  0  0  0  0  0  0
    2.4720   69.3640   67.6750 C   0  0  0  0  0  0  0  0  0  0  0  0
    3.4180   70.1390   68.3470 C   0  0  0  0  0  0  0  0  0  0  0  0
    5.6450   71.2840   68.4250 C   0  0  0  0  0  0  0  0  0  0  0  0
    5.9170   72.4330   68.1210 O   0  0  0  0  0  0  0  0  0  0  0  0
    7.5810   70.8920   69.6680 C   0  0  0  0  0  0  0  0  0  0  0  0
    6.2110   70.5650   69.4310 O   0  0  0  0  0  0  0  0  0  0  0  0
    3.1470   70.5810   69.6100 O   0  0  0  0  0  0  0  0  0  0  0  0
    5.8853   70.1617   65.9798 H   0  0  0  0  0  0  0  0  0  0  0  0
    4.1936   68.7739   64.7818 H   0  0  0  0  0  0  0  0  0  0  0  0
    2.0052   68.2678   65.8648 H   0  0  0  0  0  0  0  0  0  0  0  0
    1.5072   69.1366   68.1519 H   0  0  0  0  0  0  0  0  0  0  0  0
    7.7653   70.9360   70.7516 H   0  0  0  0  0  0  0  0  0  0  0  0
    8.2249   70.1223   69.2175 H   0  0  0  0  0  0  0  0  0  0  0  0
    7.8079   71.8695   69.2175 H   0  0  0  0  0  0  0  0  0  0  0  0
    3.8117   71.1314   70.0951 H   0  0  0  0  0  0  0  0  0  0  0  0
  2  1  2  0
  3  2  1  0
  4  3  2  0
  5  4  1  0
  6  5  2  0
  6  1  1  0
  7  1  1  0
  8  7  2  0
 10  9  1  0
 10  7  1  0
 11  6  1  0
  2 12  1  0
  3 13  1  0
  4 14  1  0
  5 15  1  0
  9 16  1  0
  9 17  1  0
  9 18  1  0
 11 19  1  0
M  END
>  <score>  (1) 
-7.013

$$$$
=
     RDKit          3D

 19 19  0  0  0  0  0  0  0  0999 V2000
    4.8150   70.4250   67.4880 C   0  0  0  0  0  0  0  0  0  0  0  0
    3.6510   70.1920   68.2380 C   0  0  0  0  0  0  0  0  0  0  0  0
    2.6270   69.4000   67.7170 C   0  0  0  0  0  0  0  0  0  0  0  0
    2.7610   68.8370   66.4480 C   0  0  0  0  0  0  0  0  0  0  0  0
    3.9160   69.0660   65.6950 C   0  0  0  0  0  0  0  0  0  0  0  0
    4.9400   69.8590   66.2150 C   0  0  0  0  0  0  0  0  0  0  0  0
    5.9060   71.2370   68.0710 C   0  0  0  0  0  0  0  0  0  0  0  0
    5.9200   72.4540   68.1430 O   0  0  0  0  0  0  0  0  0  0  0  0
    7.6380   70.9070   69.6010 C   0  0  0  0  0  0  0  0  0  0  0  0
    6.8870   70.3970   68.4980 O   0  0  0  0  0  0  0  0  0  0  0  0
    6.0480   70.1040   65.4560 O   0  0  0  0  0  0  0  0  0  0  0  0
    3.5460   70.6351   69.2393 H   0  0  0  0  0  0  0  0  0  0  0  0
    1.7157   69.2200   68.3061 H   0  0  0  0  0  0  0  0  0  0  0  0
    1.9549   68.2106   66.0384 H   0  0  0  0  0  0  0  0  0  0  0  0
    4.0178   68.6218   64.6938 H   0  0  0  0  0  0  0  0  0  0  0  0
    7.1683   70.5880   70.5432 H   0  0  0  0  0  0  0  0  0  0  0  0
    8.6666   70.5198   69.5546 H   0  0  0  0  0  0  0  0  0  0  0  0
    7.6574   72.0058   69.5546 H   0  0  0  0  0  0  0  0  0  0  0  0
    6.7801   70.6652   65.8155 H   0  0  0  0  0  0  0  0  0  0  0  0
  2  1  2  0
  3  2  1  0
  4  3  2  0
  5  4  1  0
  6  5  2  0
  6  1  1  0
  7  1  1  0
  8  7  2  0
 10  9  1  0
 10  7  1  0
 11  6  1  0
  2 12  1  0
  3 13  1  0
  4 14  1  0
  5 15  1  0
  9 16  1  0
  9 17  1  0
  9 18  1  0
 11 19  1  0
M  END
>  <score>  (2) 
-6.593

$$$$
=
     RDKit          3D

 19 19  0  0  0  0  0  0  0  0999 V2000
    3.2150   69.6210   67.2720 C   0  0  0  0  0  0  0  0  0  0  0  0
    4.0040   69.4370   66.1260 C   0  0  0  0  0  0  0  0  0  0  0  0
    5.3440   69.8280   66.1260 C   0  0  0  0  0  0  0  0  0  0  0  0
    5.9000   70.4020   67.2680 C   0  0  0  0  0  0  0  0  0  0  0  0
    5.1200   70.5910   68.4120 C   0  0  0  0  0  0  0  0  0  0  0  0
    3.7790   70.2000   68.4130 C   0  0  0  0  0  0  0  0  0  0  0  0
    1.8060   69.1650   67.2670 C   0  0  0  0  0  0  0  0  0  0  0  0
    0.8670   69.7720   67.7530 O   0  0  0  0  0  0  0  0  0  0  0  0
    0.4270   67.5910   66.2360 C   0  0  0  0  0  0  0  0  0  0  0  0
    1.7460   67.9590   66.6420 O   0  0  0  0  0  0  0  0  0  0  0  0
    3.0180   70.4200   69.5250 O   0  0  0  0  0  0  0  0  0  0  0  0
    3.5651   68.9833   65.2251 H   0  0  0  0  0  0  0  0  0  0  0  0
    5.9601   69.6834   65.2263 H   0  0  0  0  0  0  0  0  0  0  0  0
    6.9568   70.7074   67.2688 H   0  0  0  0  0  0  0  0  0  0  0  0
    5.5614   71.0470   69.3104 H   0  0  0  0  0  0  0  0  0  0  0  0
   -0.1956   67.4173   67.1261 H   0  0  0  0  0  0  0  0  0  0  0  0
   -0.0110   68.4012   65.6346 H   0  0  0  0  0  0  0  0  0  0  0  0
    0.4717   66.6710   65.6346 H   0  0  0  0  0  0  0  0  0  0  0  0
    2.0666   70.1466   69.5357 H   0  0  0  0  0  0  0  0  0  0  0  0
  2  1  2  0
  3  2  1  0
  4  3  2  0
  5  4  1  0
  6  5  2  0
  6  1  1  0
  7  1  1  0
  8  7  2  0
 10  9  1  0
 10  7  1  0
 11  6  1  0
  2 12  1  0
  3 13  1  0
  4 14  1  0
  5 15  1  0
  9 16  1  0
  9 17  1  0
  9 18  1  0
 11 19  1  0
M  END
>  <score>  (3) 
-6.505

$$$$
=
     RDKit          3D

 19 19  0  0  0  0  0  0  0  0999 V2000
    4.5260   69.8260   66.8690 C   0  0  0  0  0  0  0  0  0  0  0  0
    5.8910   69.9930   66.5860 C   0  0  0  0  0  0  0  0  0  0  0  0
    6.7510   70.5090   67.5560 C   0  0  0  0  0  0  0  0  0  0  0  0
    6.2530   70.8580   68.8110 C   0  0  0  0  0  0  0  0  0  0  0  0
    4.8960   70.6960   69.0990 C   0  0  0  0  0  0  0  0  0  0  0  0
    4.0340   70.1820   68.1290 C   0  0  0  0  0  0  0  0  0  0  0  0
    3.6350   69.2420   65.8410 C   0  0  0  0  0  0  0  0  0  0  0  0
    2.5980   68.6430   66.0640 O   0  0  0  0  0  0  0  0  0  0  0  0
    3.5240   68.7790   63.5570 C   0  0  0  0  0  0  0  0  0  0  0  0
    4.1780   69.4790   64.6160 O   0  0  0  0  0  0  0  0  0  0  0  0
    2.7040   70.0600   68.4110 O   0  0  0  0  0  0  0  0  0  0  0  0
    6.2837   69.7162   65.5965 H   0  0  0  0  0  0  0  0  0  0  0  0
    7.8198   70.6403   67.3313 H   0  0  0  0  0  0  0  0  0  0  0  0
    6.9313   71.2623   69.5768 H   0  0  0  0  0  0  0  0  0  0  0  0
    4.5068   70.9733   70.0898 H   0  0  0  0  0  0  0  0  0  0  0  0
    2.8310   68.0373   63.9808 H   0  0  0  0  0  0  0  0  0  0  0  0
    2.9623   69.4934   62.9372 H   0  0  0  0  0  0  0  0  0  0  0  0
    4.2749   68.2671   62.9372 H   0  0  0  0  0  0  0  0  0  0  0  0
    2.0848   69.6965   67.7294 H   0  0  0  0  0  0  0  0  0  0  0  0
  2  1  2  0
  3  2  1  0
  4  3  2  0
  5  4  1  0
  6  5  2  0
  6  1  1  0
  7  1  1  0
  8  7  2  0
 10  9  1  0
 10  7  1  0
 11  6  1  0
  2 12  1  0
  3 13  1  0
  4 14  1  0
  5 15  1  0
  9 16  1  0
  9 17  1  0
  9 18  1  0
 11 19  1  0
M  END
>  <score>  (4) 
-6.418

$$$$
=
     RDKit          3D

 19 19  0  0  0  0  0  0  0  0999 V2000
    4.3480   69.4910   66.5000 C   0  0  0  0  0  0  0  0  0  0  0  0
    3.1180   69.5280   67.1740 C   0  0  0  0  0  0  0  0  0  0  0  0
    3.0330   70.0870   68.4510 C   0  0  0  0  0  0  0  0  0  0  0  0
    4.1740   70.6120   69.0560 C   0  0  0  0  0  0  0  0  0  0  0  0
    5.4030   70.5770   68.3920 C   0  0  0  0  0  0  0  0  0  0  0  0
    5.4890   70.0170   67.1160 C   0  0  0  0  0  0  0  0  0  0  0  0
    4.4120   68.9280   65.1320 C   0  0  0  0  0  0  0  0  0  0  0  0
    3.9520   67.8520   64.7900 O   0  0  0  0  0  0  0  0  0  0  0  0
    5.3890   69.2850   63.0440 C   0  0  0  0  0  0  0  0  0  0  0  0
    5.0780   69.8070   64.3360 O   0  0  0  0  0  0  0  0  0  0  0  0
    6.7010   69.9570   66.4900 O   0  0  0  0  0  0  0  0  0  0  0  0
    2.2178   69.1154   66.6951 H   0  0  0  0  0  0  0  0  0  0  0  0
    2.0679   70.1130   68.9783 H   0  0  0  0  0  0  0  0  0  0  0  0
    4.1065   71.0557   70.0603 H   0  0  0  0  0  0  0  0  0  0  0  0
    6.3014   70.9901   68.8739 H   0  0  0  0  0  0  0  0  0  0  0  0
    5.9492   68.3447   63.1536 H   0  0  0  0  0  0  0  0  0  0  0  0
    4.4571   69.0944   62.4915 H   0  0  0  0  0  0  0  0  0  0  0  0
    6.0003   70.0138   62.4915 H   0  0  0  0  0  0  0  0  0  0  0  0
    6.7717   69.5617   65.5851 H   0  0  0  0  0  0  0  0  0  0  0  0
  2  1  2  0
  3  2  1  0
  4  3  2  0
  5  4  1  0
  6  5  2  0
  6  1  1  0
  7  1  1  0
  8  7  2  0
 10  9  1  0
 10  7  1  0
 11  6  1  0
  2 12  1  0
  3 13  1  0
  4 14  1  0
  5 15  1  0
  9 16  1  0
  9 17  1  0
  9 18  1  0
 11 19  1  0
M  END
>  <score>  (5) 
-6.344

$$$$
=
     RDKit          3D

 19 19  0  0  0  0  0  0  0  0999 V2000
    4.0680   69.5490   66.5050 C   0  0  0  0  0  0  0  0  0  0  0  0
    3.4330   69.8390   67.7230 C   0  0  0  0  0  0  0  0  0  0  0  0
    4.1460   70.4450   68.7590 C   0  0  0  0  0  0  0  0  0  0  0  0
    5.4910   70.7660   68.5830 C   0  0  0  0  0  0  0  0  0  0  0  0
    6.1300   70.4780   67.3740 C   0  0  0  0  0  0  0  0  0  0  0  0
    5.4200   69.8710   66.3380 C   0  0  0  0  0  0  0  0  0  0  0  0
    3.2890   68.9410   65.4040 C   0  0  0  0  0  0  0  0  0  0  0  0
    3.4510   69.1640   64.2170 O   0  0  0  0  0  0  0  0  0  0  0  0
    2.3220   66.8180   65.3290 C   0  0  0  0  0  0  0  0  0  0  0  0
    2.3600   68.1060   65.9440 O   0  0  0  0  0  0  0  0  0  0  0  0
    6.0630   69.5640   65.1730 O   0  0  0  0  0  0  0  0  0  0  0  0
    2.3710   69.5881   67.8614 H   0  0  0  0  0  0  0  0  0  0  0  0
    3.6469   70.6690   69.7133 H   0  0  0  0  0  0  0  0  0  0  0  0
    6.0511   71.2474   69.3982 H   0  0  0  0  0  0  0  0  0  0  0  0
    7.1923   70.7298   67.2394 H   0  0  0  0  0  0  0  0  0  0  0  0
    2.2991   66.0407   66.1070 H   0  0  0  0  0  0  0  0  0  0  0  0
    1.4211   66.7370   64.7031 H   0  0  0  0  0  0  0  0  0  0  0  0
    3.2166   66.6840   64.7031 H   0  0  0  0  0  0  0  0  0  0  0  0
    5.5669   69.1331   64.4325 H   0  0  0  0  0  0  0  0  0  0  0  0
  2  1  2  0
  3  2  1  0
  4  3  2  0
  5  4  1  0
  6  5  2  0
  6  1  1  0
  7  1  1  0
  8  7  2  0
 10  9  1  0
 10  7  1  0
 11  6  1  0
  2 12  1  0
  3 13  1  0
  4 14  1  0
  5 15  1  0
  9 16  1  0
  9 17  1  0
  9 18  1  0
 11 19  1  0
M  END
>  <score>  (6) 
-6.277

$$$$
=
     RDKit          3D

 19 19  0  0  0  0  0  0  0  0999 V2000
    3.8050   68.8650   64.2470 C   0  0  0  0  0  0  0  0  0  0  0  0
    2.8650   68.7880   65.2870 C   0  0  0  0  0  0  0  0  0  0  0  0
    3.1880   69.2570   66.5610 C   0  0  0  0  0  0  0  0  0  0  0  0
    4.4470   69.8070   66.8010 C   0  0  0  0  0  0  0  0  0  0  0  0
    5.3880   69.8850   65.7720 C   0  0  0  0  0  0  0  0  0  0  0  0
    5.0670   69.4150   64.4970 C   0  0  0  0  0  0  0  0  0  0  0  0
    3.4330   68.3970   62.8930 C   0  0  0  0  0  0  0  0  0  0  0  0
    2.4250   68.7180   62.2880 O   0  0  0  0  0  0  0  0  0  0  0  0
    4.2770   66.2230   62.9820 C   0  0  0  0  0  0  0  0  0  0  0  0
    4.3970   67.5440   62.4530 O   0  0  0  0  0  0  0  0  0  0  0  0
    6.0060   69.4660   63.5080 O   0  0  0  0  0  0  0  0  0  0  0  0
    1.8711   68.3567   65.0970 H   0  0  0  0  0  0  0  0  0  0  0  0
    2.4507   69.1930   67.3748 H   0  0  0  0  0  0  0  0  0  0  0  0
    4.6997   70.1806   67.8043 H   0  0  0  0  0  0  0  0  0  0  0  0
    6.3812   70.3163   65.9658 H   0  0  0  0  0  0  0  0  0  0  0  0
    4.2809   66.2664   64.0811 H   0  0  0  0  0  0  0  0  0  0  0  0
    3.3343   65.7738   62.6362 H   0  0  0  0  0  0  0  0  0  0  0  0
    5.1233   65.6113   62.6362 H   0  0  0  0  0  0  0  0  0  0  0  0
    5.7879   69.1352   62.6008 H   0  0  0  0  0  0  0  0  0  0  0  0
  2  1  2  0
  3  2  1  0
  4  3  2  0
  5  4  1  0
  6  5  2  0
  6  1  1  0
  7  1  1  0
  8  7  2  0
 10  9  1  0
 10  7  1  0
 11  6  1  0
  2 12  1  0
  3 13  1  0
  4 14  1  0
  5 15  1  0
  9 16  1  0
  9 17  1  0
  9 18  1  0
 11 19  1  0
M  END
>  <score>  (7) 
-6.22

$$$$
=
     RDKit          3D

 19 19  0  0  0  0  0  0  0  0999 V2000
    3.3400   68.9590   63.4320 C   0  0  0  0  0  0  0  0  0  0  0  0
    2.8950   69.0000   64.7630 C   0  0  0  0  0  0  0  0  0  0  0  0
    3.7920   69.2870   65.7940 C   0  0  0  0  0  0  0  0  0  0  0  0
    5.1320   69.5350   65.5010 C   0  0  0  0  0  0  0  0  0  0  0  0
    5.5820   69.4940   64.1790 C   0  0  0  0  0  0  0  0  0  0  0  0
    4.6870   69.2060   63.1470 C   0  0  0  0  0  0  0  0  0  0  0  0
    2.3690   68.6910   62.3480 C   0  0  0  0  0  0  0  0  0  0  0  0
    2.5340   68.9590   61.1710 O   0  0  0  0  0  0  0  0  0  0  0  0
    0.0390   68.7110   62.4770 C   0  0  0  0  0  0  0  0  0  0  0  0
    1.2660   68.1090   62.8920 O   0  0  0  0  0  0  0  0  0  0  0  0
    5.1450   69.1350   61.8630 O   0  0  0  0  0  0  0  0  0  0  0  0
    1.8373   68.8056   64.9942 H   0  0  0  0  0  0  0  0  0  0  0  0
    3.4415   69.3173   66.8362 H   0  0  0  0  0  0  0  0  0  0  0  0
    5.8375   69.7638   66.3134 H   0  0  0  0  0  0  0  0  0  0  0  0
    6.6405   69.6885   63.9515 H   0  0  0  0  0  0  0  0  0  0  0  0
   -0.5465   68.9983   63.3628 H   0  0  0  0  0  0  0  0  0  0  0  0
    0.2549   69.6055   61.8743 H   0  0  0  0  0  0  0  0  0  0  0  0
   -0.5363   67.9929   61.8743 H   0  0  0  0  0  0  0  0  0  0  0  0
    4.5181   68.9314   61.1244 H   0  0  0  0  0  0  0  0  0  0  0  0
  2  1  2  0
  3  2  1  0
  4  3  2  0
  5  4  1  0
  6  5  2  0
  6  1  1  0
  7  1  1  0
  8  7  2  0
 10  9  1  0
 10  7  1  0
 11  6  1  0
  2 12  1  0
  3 13  1  0
  4 14  1  0
  5 15  1  0
  9 16  1  0
  9 17  1  0
  9 18  1  0
 11 19  1  0
M  END
>  <score>  (8) 
-6.217

$$$$
=
     RDKit          3D

 19 19  0  0  0  0  0  0  0  0999 V2000
    4.0580   60.8360   70.8500 C   0  0  0  0  0  0  0  0  0  0  0  0
    3.2660   61.0150   69.7040 C   0  0  0  0  0  0  0  0  0  0  0  0
    3.2840   62.2320   69.0220 C   0  0  0  0  0  0  0  0  0  0  0  0
    4.0910   63.2730   69.4790 C   0  0  0  0  0  0  0  0  0  0  0  0
    4.8800   63.1030   70.6200 C   0  0  0  0  0  0  0  0  0  0  0  0
    4.8620   61.8870   71.3030 C   0  0  0  0  0  0  0  0  0  0  0  0
    4.0560   59.5260   71.5390 C   0  0  0  0  0  0  0  0  0  0  0  0
    4.1900   59.3610   72.7390 O   0  0  0  0  0  0  0  0  0  0  0  0
    3.1230   57.4390   71.0720 C   0  0  0  0  0  0  0  0  0  0  0  0
    3.8910   58.5490   70.6070 O   0  0  0  0  0  0  0  0  0  0  0  0
    5.6110   61.7440   72.4360 O   0  0  0  0  0  0  0  0  0  0  0  0
    2.6298   60.1934   69.3432 H   0  0  0  0  0  0  0  0  0  0  0  0
    2.6624   62.3700   68.1250 H   0  0  0  0  0  0  0  0  0  0  0  0
    4.1068   64.2315   68.9396 H   0  0  0  0  0  0  0  0  0  0  0  0
    5.5143   63.9270   70.9789 H   0  0  0  0  0  0  0  0  0  0  0  0
    3.1180   57.4317   72.1720 H   0  0  0  0  0  0  0  0  0  0  0  0
    2.0911   57.5260   70.7012 H   0  0  0  0  0  0  0  0  0  0  0  0
    3.5682   56.5040   70.7012 H   0  0  0  0  0  0  0  0  0  0  0  0
    5.6052   60.8850   72.9281 H   0  0  0  0  0  0  0  0  0  0  0  0
  2  1  2  0
  3  2  1  0
  4  3  2  0
  5  4  1  0
  6  5  2  0
  6  1  1  0
  7  1  1  0
  8  7  2  0
 10  9  1  0
 10  7  1  0
 11  6  1  0
  2 12  1  0
  3 13  1  0
  4 14  1  0
  5 15  1  0
  9 16  1  0
  9 17  1  0
  9 18  1  0
 11 19  1  0
M  END
>  <score>  (9) 
-5.866

$$$$
