=
     RDKit          3D

 92100  0  0  0  0  0  0  0  0999 V2000
   -3.7980   57.5540   76.7870 C   0  0  0  0  0  0  0  0  0  0  0  0
   -2.5160   57.2500   76.5170 C   0  0  0  0  0  0  0  0  0  0  0  0
   -1.7610   57.5160   75.2510 C   0  0  0  0  0  0  0  0  0  0  0  0
   -0.4380   58.1290   75.5110 N   0  0  0  0  0  0  0  0  0  0  0  0
   -0.0470   58.2700   76.9080 C   0  0  0  0  0  0  0  0  0  0  0  0
   -0.2870   57.0150   77.7800 C   0  0  2  0  0  0  0  0  0  0  0  0
   -1.7400   56.6160   77.6100 C   0  0  0  0  0  0  0  0  0  0  0  0
   -2.2310   55.7680   78.3560 O   0  0  0  0  0  0  0  0  0  0  0  0
   -0.0730   57.2860   79.3270 C   0  0  1  0  0  0  0  0  0  0  0  0
    0.6980   56.0720   79.8800 C   0  0  0  0  0  0  0  0  0  0  0  0
    0.5590   55.0030   78.8280 N   0  0  1  0  0  4  0  0  0  0  0  0
    0.5700   55.7470   77.4760 C   0  0  2  0  0  0  0  0  0  0  0  0
    2.0220   56.1860   77.0460 C   0  0  0  0  0  0  0  0  0  0  0  0
    2.7730   56.9070   77.6830 O   0  0  0  0  0  0  0  0  0  0  0  0
    2.3000   55.6240   75.8170 N   0  0  0  0  0  0  0  0  0  0  0  0
    1.2510   54.8330   75.3810 C   0  0  0  0  0  0  0  0  0  0  0  0
    0.2100   54.8380   76.3150 C   0  0  0  0  0  0  0  0  0  0  0  0
   -0.8910   54.0160   76.1030 C   0  0  0  0  0  0  0  0  0  0  0  0
   -0.9440   53.2570   74.9280 C   0  0  0  0  0  0  0  0  0  0  0  0
    0.0990   53.3000   73.9910 C   0  0  0  0  0  0  0  0  0  0  0  0
    1.2230   54.0920   74.2180 C   0  0  0  0  0  0  0  0  0  0  0  0
    1.5230   53.8680   78.9890 C   0  0  0  0  0  0  0  0  0  0  0  0
    0.1010   58.7630   74.3980 C   0  0  0  0  0  0  0  0  0  0  0  0
   -0.3460   58.4890   73.2790 O   0  0  0  0  0  0  0  0  0  0  0  0
    1.1690   59.8580   74.4330 C   0  0  2  0  0  0  0  0  0  0  0  0
    2.2780   59.8100   75.4770 C   0  0  0  0  0  0  0  0  0  0  0  0
    2.3720   61.1930   76.1030 C   0  0  0  0  0  0  0  0  0  0  0  0
    1.0990   61.8880   75.7440 N   0  0  2  0  0  4  0  0  0  0  0  0
    0.6260   61.2960   74.3980 C   0  0  2  0  0  0  0  0  0  0  0  0
   -0.9330   61.4430   74.2820 C   0  0  0  0  0  0  0  0  0  0  0  0
   -1.7260   61.1600   75.1670 O   0  0  0  0  0  0  0  0  0  0  0  0
   -1.2170   62.0580   73.0810 N   0  0  0  0  0  0  0  0  0  0  0  0
   -0.0530   62.4330   72.4240 C   0  0  0  0  0  0  0  0  0  0  0  0
    1.0740   62.0420   73.1560 C   0  0  0  0  0  0  0  0  0  0  0  0
    2.3450   62.3250   72.6750 C   0  0  0  0  0  0  0  0  0  0  0  0
    2.4530   63.0170   71.4650 C   0  0  0  0  0  0  0  0  0  0  0  0
    1.3070   63.4080   70.7490 C   0  0  0  0  0  0  0  0  0  0  0  0
    0.0310   63.1140   71.2290 C   0  0  0  0  0  0  0  0  0  0  0  0
    1.1590   63.3850   75.8300 C   0  0  0  0  0  0  0  0  0  0  0  0
   -7.0950   60.1530   73.1070 F   0  0  0  0  0  0  0  0  0  0  0  0
   -6.3160   59.5270   73.9970 C   0  0  0  0  0  0  0  0  0  0  0  0
   -6.3510   58.1400   74.0830 C   0  0  0  0  0  0  0  0  0  0  0  0
   -5.5330   57.4860   75.0070 C   0  0  0  0  0  0  0  0  0  0  0  0
   -4.6810   58.2270   75.8350 C   0  0  0  0  0  0  0  0  0  0  0  0
   -4.6590   59.6250   75.7390 C   0  0  0  0  0  0  0  0  0  0  0  0
   -5.4810   60.2750   74.8180 C   0  0  0  0  0  0  0  0  0  0  0  0
    0.4600   58.6630   79.7040 C   0  0  0  0  0  0  0  0  0  0  0  0
   -0.4730   59.7000   79.9200 C   0  0  0  0  0  0  0  0  0  0  0  0
   -0.0550   61.0060   80.1800 C   0  0  0  0  0  0  0  0  0  0  0  0
    1.3010   61.2870   80.2430 C   0  0  0  0  0  0  0  0  0  0  0  0
    2.2410   60.2820   80.0690 C   0  0  0  0  0  0  0  0  0  0  0  0
    1.8240   58.9750   79.8010 C   0  0  0  0  0  0  0  0  0  0  0  0
    1.7080   62.5450   80.4370 F   0  0  0  0  0  0  0  0  0  0  0  0
   -4.2027   57.2829   77.7733 H   0  0  0  0  0  0  0  0  0  0  0  0
   -1.6130   56.5644   74.7194 H   0  0  0  0  0  0  0  0  0  0  0  0
   -2.3494   58.2224   74.6471 H   0  0  0  0  0  0  0  0  0  0  0  0
    1.0263   58.5087   76.9403 H   0  0  0  0  0  0  0  0  0  0  0  0
   -0.6817   59.0642   77.3280 H   0  0  0  0  0  0  0  0  0  0  0  0
   -1.0479   57.3614   79.8310 H   0  0  0  0  0  0  0  0  0  0  0  0
    1.7571   56.3256   80.0346 H   0  0  0  0  0  0  0  0  0  0  0  0
    0.3049   55.7441   80.8536 H   0  0  0  0  0  0  0  0  0  0  0  0
   -0.3274   54.4852   78.9117 H   0  0  0  0  0  0  0  0  0  0  0  0
    3.1738   55.7735   75.2925 H   0  0  0  0  0  0  0  0  0  0  0  0
   -1.7033   53.9632   76.8429 H   0  0  0  0  0  0  0  0  0  0  0  0
   -1.8176   52.6166   74.7364 H   0  0  0  0  0  0  0  0  0  0  0  0
    0.0291   52.7036   73.0694 H   0  0  0  0  0  0  0  0  0  0  0  0
    2.0545   54.1249   73.4986 H   0  0  0  0  0  0  0  0  0  0  0  0
    1.6868   53.6751   80.0595 H   0  0  0  0  0  0  0  0  0  0  0  0
    1.1105   52.9662   78.5129 H   0  0  0  0  0  0  0  0  0  0  0  0
    2.4796   54.1291   78.5129 H   0  0  0  0  0  0  0  0  0  0  0  0
    1.6492   59.5787   73.4836 H   0  0  0  0  0  0  0  0  0  0  0  0
    2.0366   59.0636   76.2482 H   0  0  0  0  0  0  0  0  0  0  0  0
    3.2351   59.5265   75.0149 H   0  0  0  0  0  0  0  0  0  0  0  0
    2.4702   61.1133   77.1957 H   0  0  0  0  0  0  0  0  0  0  0  0
    3.2515   61.7441   75.7387 H   0  0  0  0  0  0  0  0  0  0  0  0
    0.3751   61.7037   76.4531 H   0  0  0  0  0  0  0  0  0  0  0  0
   -2.1679   62.2181   72.7189 H   0  0  0  0  0  0  0  0  0  0  0  0
    3.2420   62.0135   73.2303 H   0  0  0  0  0  0  0  0  0  0  0  0
    3.4493   63.2594   71.0668 H   0  0  0  0  0  0  0  0  0  0  0  0
    1.4186   63.9520   69.7995 H   0  0  0  0  0  0  0  0  0  0  0  0
   -0.8716   63.4135   70.6762 H   0  0  0  0  0  0  0  0  0  0  0  0
    1.1713   63.6914   76.8864 H   0  0  0  0  0  0  0  0  0  0  0  0
    2.0723   63.7445   75.3333 H   0  0  0  0  0  0  0  0  0  0  0  0
    0.2774   63.8164   75.3333 H   0  0  0  0  0  0  0  0  0  0  0  0
   -7.0186   57.5614   73.4276 H   0  0  0  0  0  0  0  0  0  0  0  0
   -5.5581   56.3890   75.0843 H   0  0  0  0  0  0  0  0  0  0  0  0
   -3.9931   60.2102   76.3903 H   0  0  0  0  0  0  0  0  0  0  0  0
   -5.4682   61.3723   74.7423 H   0  0  0  0  0  0  0  0  0  0  0  0
   -1.5490   59.4747   79.8827 H   0  0  0  0  0  0  0  0  0  0  0  0
   -0.7950   61.8053   80.3336 H   0  0  0  0  0  0  0  0  0  0  0  0
    3.3139   60.5133   80.1419 H   0  0  0  0  0  0  0  0  0  0  0  0
    2.5742   58.1821   79.6646 H   0  0  0  0  0  0  0  0  0  0  0  0
  2  1  2  0
  3  2  1  0
  4  3  1  0
  5  4  1  0
  6  5  1  6
  7  6  1  0
  7  2  1  0
  8  7  2  0
  9  6  1  0
 10  9  1  0
 11 10  1  0
 12 11  1  0
 12  6  1  0
 12 13  1  6
 14 13  2  0
 15 13  1  0
 16 15  1  0
 17 16  2  0
 17 12  1  0
 18 17  1  0
 19 18  2  0
 20 19  1  0
 21 20  2  0
 21 16  1  0
 22 11  1  0
 23  4  1  0
 24 23  2  0
 25 23  1  0
 26 25  1  0
 27 26  1  0
 28 27  1  0
 29 25  1  0
 29 28  1  0
 29 30  1  1
 31 30  2  0
 32 30  1  0
 33 32  1  0
 34 33  2  0
 34 29  1  0
 35 34  1  0
 36 35  2  0
 37 36  1  0
 38 37  2  0
 38 33  1  0
 39 28  1  0
 41 40  1  0
 42 41  2  0
 43 42  1  0
 44 43  2  0
 44  1  1  0
 45 44  1  0
 46 41  1  0
 46 45  2  0
 47  9  1  0
 48 47  2  0
 49 48  1  0
 50 49  2  0
 51 50  1  0
 52 47  1  0
 52 51  2  0
 53 50  1  0
  1 54  1  0
  3 55  1  0
  3 56  1  0
  5 57  1  0
  5 58  1  0
  9 59  1  1
 10 60  1  0
 10 61  1  0
 11 62  1  1
 15 63  1  0
 18 64  1  0
 19 65  1  0
 20 66  1  0
 21 67  1  0
 22 68  1  0
 22 69  1  0
 22 70  1  0
 25 71  1  6
 26 72  1  0
 26 73  1  0
 27 74  1  0
 27 75  1  0
 28 76  1  1
 32 77  1  0
 35 78  1  0
 36 79  1  0
 37 80  1  0
 38 81  1  0
 39 82  1  0
 39 83  1  0
 39 84  1  0
 42 85  1  0
 43 86  1  0
 45 87  1  0
 46 88  1  0
 48 89  1  0
 49 90  1  0
 51 91  1  0
 52 92  1  0
M  CHG  2  11   1  28   1
M  END
>  <score>  (1) 
-8.808

$$$$
=
     RDKit          3D

 92100  0  0  0  0  0  0  0  0999 V2000
    0.0440   63.5950   73.9970 C   0  0  0  0  0  0  0  0  0  0  0  0
   -0.5870   62.6840   74.7570 C   0  0  0  0  0  0  0  0  0  0  0  0
   -0.7350   61.2170   74.4920 C   0  0  0  0  0  0  0  0  0  0  0  0
   -0.4010   60.4000   75.6810 N   0  0  0  0  0  0  0  0  0  0  0  0
   -0.1000   61.1260   76.9080 C   0  0  0  0  0  0  0  0  0  0  0  0
   -1.0870   62.2680   77.2460 C   0  0  2  0  0  0  0  0  0  0  0  0
   -1.1700   63.1700   76.0310 C   0  0  0  0  0  0  0  0  0  0  0  0
   -1.7340   64.2610   76.1180 O   0  0  0  0  0  0  0  0  0  0  0  0
   -0.5940   63.1760   78.4470 C   0  0  1  0  0  0  0  0  0  0  0  0
   -1.8290   63.4420   79.3300 C   0  0  0  0  0  0  0  0  0  0  0  0
   -3.0120   63.0740   78.4740 N   0  0  1  0  0  4  0  0  0  0  0  0
   -2.5500   61.8740   77.6200 C   0  0  2  0  0  0  0  0  0  0  0  0
   -2.5380   60.5260   78.4370 C   0  0  0  0  0  0  0  0  0  0  0  0
   -1.9020   60.3100   79.4560 O   0  0  0  0  0  0  0  0  0  0  0  0
   -3.3630   59.6230   77.7990 N   0  0  0  0  0  0  0  0  0  0  0  0
   -3.9620   60.1920   76.6890 C   0  0  0  0  0  0  0  0  0  0  0  0
   -3.5500   61.5200   76.5340 C   0  0  0  0  0  0  0  0  0  0  0  0
   -4.1250   62.2920   75.5310 C   0  0  0  0  0  0  0  0  0  0  0  0
   -5.0540   61.6930   74.6720 C   0  0  0  0  0  0  0  0  0  0  0  0
   -5.4200   60.3470   74.8290 C   0  0  0  0  0  0  0  0  0  0  0  0
   -4.8760   59.5800   75.8570 C   0  0  0  0  0  0  0  0  0  0  0  0
   -4.2880   62.9110   79.2420 C   0  0  0  0  0  0  0  0  0  0  0  0
   -0.1200   59.0740   75.3740 C   0  0  0  0  0  0  0  0  0  0  0  0
   -0.4850   58.6220   74.2830 O   0  0  0  0  0  0  0  0  0  0  0  0
    0.6910   58.1150   76.2470 C   0  0  2  0  0  0  0  0  0  0  0  0
    1.1090   58.5310   77.6530 C   0  0  0  0  0  0  0  0  0  0  0  0
    2.5880   58.2100   77.8010 C   0  0  0  0  0  0  0  0  0  0  0  0
    3.1010   58.0170   76.4110 N   0  0  2  0  0  4  0  0  0  0  0  0
    1.9210   57.4950   75.5630 C   0  0  2  0  0  0  0  0  0  0  0  0
    2.1460   57.8890   74.0600 C   0  0  0  0  0  0  0  0  0  0  0  0
    2.4830   58.9980   73.6730 O   0  0  0  0  0  0  0  0  0  0  0  0
    2.0240   56.7470   73.2950 N   0  0  0  0  0  0  0  0  0  0  0  0
    1.8480   55.6270   74.0950 C   0  0  0  0  0  0  0  0  0  0  0  0
    1.8070   55.9880   75.4470 C   0  0  0  0  0  0  0  0  0  0  0  0
    1.6410   55.0120   76.4200 C   0  0  0  0  0  0  0  0  0  0  0  0
    1.5360   53.6800   76.0080 C   0  0  0  0  0  0  0  0  0  0  0  0
    1.5880   53.3380   74.6440 C   0  0  0  0  0  0  0  0  0  0  0  0
    1.7450   54.3220   73.6670 C   0  0  0  0  0  0  0  0  0  0  0  0
    4.3830   57.2390   76.3220 C   0  0  0  0  0  0  0  0  0  0  0  0
    2.6020   62.2520   69.2190 F   0  0  0  0  0  0  0  0  0  0  0  0
    1.9900   62.5880   70.3610 C   0  0  0  0  0  0  0  0  0  0  0  0
    0.7150   63.1390   70.3200 C   0  0  0  0  0  0  0  0  0  0  0  0
    0.0740   63.4830   71.5120 C   0  0  0  0  0  0  0  0  0  0  0  0
    0.7140   63.2670   72.7390 C   0  0  0  0  0  0  0  0  0  0  0  0
    2.0010   62.7140   72.7650 C   0  0  0  0  0  0  0  0  0  0  0  0
    2.6400   62.3750   71.5710 C   0  0  0  0  0  0  0  0  0  0  0  0
    0.6710   62.7200   79.1640 C   0  0  0  0  0  0  0  0  0  0  0  0
    1.9050   63.2650   78.7460 C   0  0  0  0  0  0  0  0  0  0  0  0
    3.1110   62.8290   79.2960 C   0  0  0  0  0  0  0  0  0  0  0  0
    3.0970   61.8530   80.2800 C   0  0  0  0  0  0  0  0  0  0  0  0
    1.8990   61.3230   80.7350 C   0  0  0  0  0  0  0  0  0  0  0  0
    0.6900   61.7540   80.1810 C   0  0  0  0  0  0  0  0  0  0  0  0
    4.2520   61.3910   80.7700 F   0  0  0  0  0  0  0  0  0  0  0  0
    0.0573   64.6406   74.3384 H   0  0  0  0  0  0  0  0  0  0  0  0
   -1.7761   61.0122   74.2019 H   0  0  0  0  0  0  0  0  0  0  0  0
   -0.0359   60.9458   73.6872 H   0  0  0  0  0  0  0  0  0  0  0  0
   -0.1095   60.4080   77.7413 H   0  0  0  0  0  0  0  0  0  0  0  0
    0.8805   61.6002   76.7540 H   0  0  0  0  0  0  0  0  0  0  0  0
   -0.2090   64.1302   78.0580 H   0  0  0  0  0  0  0  0  0  0  0  0
   -1.7982   62.8173   80.2349 H   0  0  0  0  0  0  0  0  0  0  0  0
   -1.8754   64.4876   79.6684 H   0  0  0  0  0  0  0  0  0  0  0  0
   -3.2903   63.8399   77.8441 H   0  0  0  0  0  0  0  0  0  0  0  0
   -3.5134   58.6522   78.1084 H   0  0  0  0  0  0  0  0  0  0  0  0
   -3.8554   63.3521   75.4147 H   0  0  0  0  0  0  0  0  0  0  0  0
   -5.5038   62.2859   73.8620 H   0  0  0  0  0  0  0  0  0  0  0  0
   -6.1426   59.8939   74.1344 H   0  0  0  0  0  0  0  0  0  0  0  0
   -5.1641   58.5280   75.9994 H   0  0  0  0  0  0  0  0  0  0  0  0
   -4.0729   62.9385   80.3204 H   0  0  0  0  0  0  0  0  0  0  0  0
   -4.9778   63.7283   78.9847 H   0  0  0  0  0  0  0  0  0  0  0  0
   -4.7502   61.9465   78.9847 H   0  0  0  0  0  0  0  0  0  0  0  0
   -0.1147   57.3790   76.3853 H   0  0  0  0  0  0  0  0  0  0  0  0
    0.9426   59.6095   77.7911 H   0  0  0  0  0  0  0  0  0  0  0  0
    0.5173   57.9941   78.4091 H   0  0  0  0  0  0  0  0  0  0  0  0
    3.1138   59.0423   78.2918 H   0  0  0  0  0  0  0  0  0  0  0  0
    2.7493   57.3158   78.4211 H   0  0  0  0  0  0  0  0  0  0  0  0
    3.4147   58.9141   76.0138 H   0  0  0  0  0  0  0  0  0  0  0  0
    2.0590   56.7284   72.2658 H   0  0  0  0  0  0  0  0  0  0  0  0
    1.5934   55.2792   77.4860 H   0  0  0  0  0  0  0  0  0  0  0  0
    1.4109   52.8880   76.7610 H   0  0  0  0  0  0  0  0  0  0  0  0
    1.5039   52.2829   74.3444 H   0  0  0  0  0  0  0  0  0  0  0  0
    1.7849   54.0656   72.5980 H   0  0  0  0  0  0  0  0  0  0  0  0
    4.7484   57.0172   77.3355 H   0  0  0  0  0  0  0  0  0  0  0  0
    4.2037   56.2972   75.7826 H   0  0  0  0  0  0  0  0  0  0  0  0
    5.1356   57.8329   75.7826 H   0  0  0  0  0  0  0  0  0  0  0  0
    0.2138   63.3032   69.3547 H   0  0  0  0  0  0  0  0  0  0  0  0
   -0.9336   63.9236   71.4873 H   0  0  0  0  0  0  0  0  0  0  0  0
    2.5082   62.5469   73.7267 H   0  0  0  0  0  0  0  0  0  0  0  0
    3.6511   61.9422   71.5877 H   0  0  0  0  0  0  0  0  0  0  0  0
    1.9156   64.0474   77.9728 H   0  0  0  0  0  0  0  0  0  0  0  0
    4.0644   63.2561   78.9517 H   0  0  0  0  0  0  0  0  0  0  0  0
    1.9000   60.5640   81.5312 H   0  0  0  0  0  0  0  0  0  0  0  0
   -0.2572   61.3308   80.5467 H   0  0  0  0  0  0  0  0  0  0  0  0
  2  1  2  0
  3  2  1  0
  4  3  1  0
  5  4  1  0
  6  5  1  6
  7  6  1  0
  7  2  1  0
  8  7  2  0
  9  6  1  0
 10  9  1  0
 11 10  1  0
 12 11  1  0
 12  6  1  0
 12 13  1  1
 14 13  2  0
 15 13  1  0
 16 15  1  0
 17 16  2  0
 17 12  1  0
 18 17  1  0
 19 18  2  0
 20 19  1  0
 21 20  2  0
 21 16  1  0
 22 11  1  0
 23  4  1  0
 24 23  2  0
 25 23  1  0
 26 25  1  0
 27 26  1  0
 28 27  1  0
 29 25  1  0
 29 28  1  0
 29 30  1  6
 31 30  2  0
 32 30  1  0
 33 32  1  0
 34 33  2  0
 34 29  1  0
 35 34  1  0
 36 35  2  0
 37 36  1  0
 38 37  2  0
 38 33  1  0
 39 28  1  0
 41 40  1  0
 42 41  2  0
 43 42  1  0
 44 43  2  0
 44  1  1  0
 45 44  1  0
 46 41  1  0
 46 45  2  0
 47  9  1  0
 48 47  2  0
 49 48  1  0
 50 49  2  0
 51 50  1  0
 52 47  1  0
 52 51  2  0
 53 50  1  0
  1 54  1  0
  3 55  1  0
  3 56  1  0
  5 57  1  0
  5 58  1  0
  9 59  1  6
 10 60  1  0
 10 61  1  0
 11 62  1  6
 15 63  1  0
 18 64  1  0
 19 65  1  0
 20 66  1  0
 21 67  1  0
 22 68  1  0
 22 69  1  0
 22 70  1  0
 25 71  1  1
 26 72  1  0
 26 73  1  0
 27 74  1  0
 27 75  1  0
 28 76  1  6
 32 77  1  0
 35 78  1  0
 36 79  1  0
 37 80  1  0
 38 81  1  0
 39 82  1  0
 39 83  1  0
 39 84  1  0
 42 85  1  0
 43 86  1  0
 45 87  1  0
 46 88  1  0
 48 89  1  0
 49 90  1  0
 51 91  1  0
 52 92  1  0
M  CHG  2  11   1  28   1
M  END
>  <score>  (2) 
-8.769

$$$$
=
     RDKit          3D

 92100  0  0  0  0  0  0  0  0999 V2000
   -0.8730   60.7030   73.1070 C   0  0  0  0  0  0  0  0  0  0  0  0
   -1.3650   60.7850   74.3550 C   0  0  0  0  0  0  0  0  0  0  0  0
   -1.0520   61.8190   75.3940 C   0  0  0  0  0  0  0  0  0  0  0  0
   -2.2770   62.3580   76.0280 N   0  0  0  0  0  0  0  0  0  0  0  0
   -3.5390   61.7430   75.6380 C   0  0  0  0  0  0  0  0  0  0  0  0
   -3.5300   60.1970   75.6140 C   0  0  2  0  0  0  0  0  0  0  0  0
   -2.3670   59.7630   74.7440 C   0  0  0  0  0  0  0  0  0  0  0  0
   -2.2650   58.5850   74.4040 O   0  0  0  0  0  0  0  0  0  0  0  0
   -4.8350   59.5790   74.9610 C   0  0  1  0  0  0  0  0  0  0  0  0
   -5.2440   58.3870   75.8470 C   0  0  0  0  0  0  0  0  0  0  0  0
   -4.0320   58.0860   76.6890 N   0  0  1  0  0  4  0  0  0  0  0  0
   -3.3770   59.4530   76.9780 C   0  0  2  0  0  0  0  0  0  0  0  0
   -4.1380   60.2560   78.1010 C   0  0  0  0  0  0  0  0  0  0  0  0
   -5.3120   60.5910   78.0750 O   0  0  0  0  0  0  0  0  0  0  0  0
   -3.2490   60.5270   79.1210 N   0  0  0  0  0  0  0  0  0  0  0  0
   -2.0060   59.9790   78.8570 C   0  0  0  0  0  0  0  0  0  0  0  0
   -2.0120   59.3130   77.6270 C   0  0  0  0  0  0  0  0  0  0  0  0
   -0.8800   58.6090   77.2360 C   0  0  0  0  0  0  0  0  0  0  0  0
    0.2500   58.6410   78.0620 C   0  0  0  0  0  0  0  0  0  0  0  0
    0.2380   59.3490   79.2740 C   0  0  0  0  0  0  0  0  0  0  0  0
   -0.9070   60.0240   79.6900 C   0  0  0  0  0  0  0  0  0  0  0  0
   -4.3170   57.2050   77.8670 C   0  0  0  0  0  0  0  0  0  0  0  0
   -2.0730   63.5760   76.6670 C   0  0  0  0  0  0  0  0  0  0  0  0
   -0.9200   63.9180   76.9480 O   0  0  0  0  0  0  0  0  0  0  0  0
   -3.1630   64.5980   76.9910 C   0  0  2  0  0  0  0  0  0  0  0  0
   -3.2010   65.9340   76.2580 C   0  0  0  0  0  0  0  0  0  0  0  0
   -3.3680   67.0230   77.3060 C   0  0  0  0  0  0  0  0  0  0  0  0
   -3.0140   66.3870   78.6110 N   0  0  2  0  0  4  0  0  0  0  0  0
   -3.3590   64.8870   78.4900 C   0  0  2  0  0  0  0  0  0  0  0  0
   -2.4540   64.0630   79.4740 C   0  0  0  0  0  0  0  0  0  0  0  0
   -1.2470   64.2080   79.5980 O   0  0  0  0  0  0  0  0  0  0  0  0
   -3.2760   63.2650   80.2430 N   0  0  0  0  0  0  0  0  0  0  0  0
   -4.6130   63.5180   79.9730 C   0  0  0  0  0  0  0  0  0  0  0  0
   -4.7400   64.4850   78.9700 C   0  0  0  0  0  0  0  0  0  0  0  0
   -6.0000   64.8880   78.5510 C   0  0  0  0  0  0  0  0  0  0  0  0
   -7.1150   64.3160   79.1700 C   0  0  0  0  0  0  0  0  0  0  0  0
   -6.9660   63.3510   80.1820 C   0  0  0  0  0  0  0  0  0  0  0  0
   -5.6980   62.9400   80.5950 C   0  0  0  0  0  0  0  0  0  0  0  0
   -3.5520   67.1000   79.8180 C   0  0  0  0  0  0  0  0  0  0  0  0
    2.8080   64.2970   70.9400 F   0  0  0  0  0  0  0  0  0  0  0  0
    1.9220   63.4450   71.4690 C   0  0  0  0  0  0  0  0  0  0  0  0
    0.5610   63.6770   71.2990 C   0  0  0  0  0  0  0  0  0  0  0  0
   -0.3630   62.7840   71.8440 C   0  0  0  0  0  0  0  0  0  0  0  0
    0.0820   61.6620   72.5540 C   0  0  0  0  0  0  0  0  0  0  0  0
    1.4560   61.4430   72.7200 C   0  0  0  0  0  0  0  0  0  0  0  0
    2.3770   62.3400   72.1770 C   0  0  0  0  0  0  0  0  0  0  0  0
   -5.9360   60.5650   74.5930 C   0  0  0  0  0  0  0  0  0  0  0  0
   -6.7260   60.2840   73.4560 C   0  0  0  0  0  0  0  0  0  0  0  0
   -7.6920   61.1850   73.0070 C   0  0  0  0  0  0  0  0  0  0  0  0
   -7.8920   62.3700   73.6980 C   0  0  0  0  0  0  0  0  0  0  0  0
   -7.1560   62.6580   74.8380 C   0  0  0  0  0  0  0  0  0  0  0  0
   -6.1820   61.7600   75.2850 C   0  0  0  0  0  0  0  0  0  0  0  0
   -8.7780   63.2610   73.2410 F   0  0  0  0  0  0  0  0  0  0  0  0
   -1.2060   59.8714   72.4686 H   0  0  0  0  0  0  0  0  0  0  0  0
   -0.4218   61.3620   76.1711 H   0  0  0  0  0  0  0  0  0  0  0  0
   -0.5318   62.6518   74.8982 H   0  0  0  0  0  0  0  0  0  0  0  0
   -4.3122   62.0692   76.3492 H   0  0  0  0  0  0  0  0  0  0  0  0
   -3.7334   62.0664   74.6047 H   0  0  0  0  0  0  0  0  0  0  0  0
   -4.6105   59.2201   73.9457 H   0  0  0  0  0  0  0  0  0  0  0  0
   -6.0993   58.6558   76.4844 H   0  0  0  0  0  0  0  0  0  0  0  0
   -5.5548   57.5179   75.2487 H   0  0  0  0  0  0  0  0  0  0  0  0
   -3.3512   57.4920   76.1944 H   0  0  0  0  0  0  0  0  0  0  0  0
   -3.4802   61.0663   79.9676 H   0  0  0  0  0  0  0  0  0  0  0  0
   -0.8716   58.0377   76.2960 H   0  0  0  0  0  0  0  0  0  0  0  0
    1.1601   58.1037   77.7569 H   0  0  0  0  0  0  0  0  0  0  0  0
    1.1415   59.3709   79.9011 H   0  0  0  0  0  0  0  0  0  0  0  0
   -0.9341   60.5709   80.6440 H   0  0  0  0  0  0  0  0  0  0  0  0
   -4.1358   57.7652   78.7962 H   0  0  0  0  0  0  0  0  0  0  0  0
   -5.3668   56.8780   77.8348 H   0  0  0  0  0  0  0  0  0  0  0  0
   -3.6577   56.3251   77.8348 H   0  0  0  0  0  0  0  0  0  0  0  0
   -3.9946   64.0110   76.5740 H   0  0  0  0  0  0  0  0  0  0  0  0
   -2.2628   66.0858   75.7042 H   0  0  0  0  0  0  0  0  0  0  0  0
   -4.0315   65.9580   75.5371 H   0  0  0  0  0  0  0  0  0  0  0  0
   -2.6930   67.8654   77.0945 H   0  0  0  0  0  0  0  0  0  0  0  0
   -4.3923   67.4240   77.3147 H   0  0  0  0  0  0  0  0  0  0  0  0
   -2.0041   66.4747   78.7934 H   0  0  0  0  0  0  0  0  0  0  0  0
   -2.9409   62.5723   80.9277 H   0  0  0  0  0  0  0  0  0  0  0  0
   -6.1180   65.6368   77.7539 H   0  0  0  0  0  0  0  0  0  0  0  0
   -8.1243   64.6254   78.8609 H   0  0  0  0  0  0  0  0  0  0  0  0
   -7.8592   62.9152   80.6534 H   0  0  0  0  0  0  0  0  0  0  0  0
   -5.5700   62.1853   81.3850 H   0  0  0  0  0  0  0  0  0  0  0  0
   -3.1812   66.6086   80.7297 H   0  0  0  0  0  0  0  0  0  0  0  0
   -3.2175   68.1478   79.8043 H   0  0  0  0  0  0  0  0  0  0  0  0
   -4.6514   67.0659   79.8043 H   0  0  0  0  0  0  0  0  0  0  0  0
    0.2153   64.5583   70.7388 H   0  0  0  0  0  0  0  0  0  0  0  0
   -1.4410   62.9616   71.7158 H   0  0  0  0  0  0  0  0  0  0  0  0
    1.8089   60.5636   73.2786 H   0  0  0  0  0  0  0  0  0  0  0  0
    3.4562   62.1730   72.3088 H   0  0  0  0  0  0  0  0  0  0  0  0
   -6.5768   59.3379   72.9150 H   0  0  0  0  0  0  0  0  0  0  0  0
   -8.2899   60.9570   72.1123 H   0  0  0  0  0  0  0  0  0  0  0  0
   -7.3385   63.5919   75.3898 H   0  0  0  0  0  0  0  0  0  0  0  0
   -5.6018   61.9934   76.1900 H   0  0  0  0  0  0  0  0  0  0  0  0
  2  1  2  0
  3  2  1  0
  4  3  1  0
  5  4  1  0
  6  5  1  1
  7  6  1  0
  7  2  1  0
  8  7  2  0
  9  6  1  0
 10  9  1  0
 11 10  1  0
 12 11  1  0
 12  6  1  0
 12 13  1  1
 14 13  2  0
 15 13  1  0
 16 15  1  0
 17 16  2  0
 17 12  1  0
 18 17  1  0
 19 18  2  0
 20 19  1  0
 21 20  2  0
 21 16  1  0
 22 11  1  0
 23  4  1  0
 24 23  2  0
 25 23  1  0
 26 25  1  0
 27 26  1  0
 28 27  1  0
 29 25  1  0
 29 28  1  0
 29 30  1  1
 31 30  2  0
 32 30  1  0
 33 32  1  0
 34 33  2  0
 34 29  1  0
 35 34  1  0
 36 35  2  0
 37 36  1  0
 38 37  2  0
 38 33  1  0
 39 28  1  0
 41 40  1  0
 42 41  2  0
 43 42  1  0
 44 43  2  0
 44  1  1  0
 45 44  1  0
 46 41  1  0
 46 45  2  0
 47  9  1  0
 48 47  2  0
 49 48  1  0
 50 49  2  0
 51 50  1  0
 52 47  1  0
 52 51  2  0
 53 50  1  0
  1 54  1  0
  3 55  1  0
  3 56  1  0
  5 57  1  0
  5 58  1  0
  9 59  1  6
 10 60  1  0
 10 61  1  0
 11 62  1  6
 15 63  1  0
 18 64  1  0
 19 65  1  0
 20 66  1  0
 21 67  1  0
 22 68  1  0
 22 69  1  0
 22 70  1  0
 25 71  1  6
 26 72  1  0
 26 73  1  0
 27 74  1  0
 27 75  1  0
 28 76  1  1
 32 77  1  0
 35 78  1  0
 36 79  1  0
 37 80  1  0
 38 81  1  0
 39 82  1  0
 39 83  1  0
 39 84  1  0
 42 85  1  0
 43 86  1  0
 45 87  1  0
 46 88  1  0
 48 89  1  0
 49 90  1  0
 51 91  1  0
 52 92  1  0
M  CHG  2  11   1  28   1
M  END
>  <score>  (3) 
-8.516

$$$$
=
     RDKit          3D

 92100  0  0  0  0  0  0  0  0999 V2000
    0.3800   59.8620   73.2540 C   0  0  0  0  0  0  0  0  0  0  0  0
    0.3280   59.6310   74.5770 C   0  0  0  0  0  0  0  0  0  0  0  0
    0.5210   60.6210   75.6850 C   0  0  0  0  0  0  0  0  0  0  0  0
   -0.5400   60.5200   76.7130 N   0  0  0  0  0  0  0  0  0  0  0  0
   -1.5070   59.4420   76.5490 C   0  0  0  0  0  0  0  0  0  0  0  0
   -0.8930   58.0640   76.2110 C   0  0  2  0  0  0  0  0  0  0  0  0
   -0.0030   58.2490   74.9980 C   0  0  0  0  0  0  0  0  0  0  0  0
    0.4420   57.2620   74.4120 O   0  0  0  0  0  0  0  0  0  0  0  0
   -1.9800   56.9830   75.8100 C   0  0  1  0  0  0  0  0  0  0  0  0
   -1.5730   55.6730   76.5110 C   0  0  0  0  0  0  0  0  0  0  0  0
   -0.1400   55.8770   76.9290 N   0  0  1  0  0  4  0  0  0  0  0  0
   -0.0270   57.3690   77.3080 C   0  0  2  0  0  0  0  0  0  0  0  0
   -0.6370   57.6740   78.7290 C   0  0  0  0  0  0  0  0  0  0  0  0
   -1.7870   57.4590   79.0780 O   0  0  0  0  0  0  0  0  0  0  0  0
    0.3490   58.2350   79.5150 N   0  0  0  0  0  0  0  0  0  0  0  0
    1.5490   58.3100   78.8300 C   0  0  0  0  0  0  0  0  0  0  0  0
    1.4110   57.7980   77.5360 C   0  0  0  0  0  0  0  0  0  0  0  0
    2.5370   57.6920   76.7280 C   0  0  0  0  0  0  0  0  0  0  0  0
    3.7620   58.1600   77.2200 C   0  0  0  0  0  0  0  0  0  0  0  0
    3.8620   58.7030   78.5100 C   0  0  0  0  0  0  0  0  0  0  0  0
    2.7450   58.7750   79.3380 C   0  0  0  0  0  0  0  0  0  0  0  0
    0.3440   54.8800   77.9360 C   0  0  0  0  0  0  0  0  0  0  0  0
   -0.6420   61.6550   77.5090 C   0  0  0  0  0  0  0  0  0  0  0  0
    0.3040   62.4490   77.5430 O   0  0  0  0  0  0  0  0  0  0  0  0
   -1.8800   62.0680   78.3070 C   0  0  2  0  0  0  0  0  0  0  0  0
   -2.5700   61.0630   79.2210 C   0  0  0  0  0  0  0  0  0  0  0  0
   -4.0600   61.1300   78.9270 C   0  0  0  0  0  0  0  0  0  0  0  0
   -4.1820   61.8270   77.6100 N   0  0  2  0  0  4  0  0  0  0  0  0
   -2.9730   62.7790   77.4910 C   0  0  2  0  0  0  0  0  0  0  0  0
   -2.6500   63.0240   75.9740 C   0  0  0  0  0  0  0  0  0  0  0  0
   -2.5800   62.1470   75.1260 O   0  0  0  0  0  0  0  0  0  0  0  0
   -2.5970   64.3870   75.7630 N   0  0  0  0  0  0  0  0  0  0  0  0
   -2.9390   65.0840   76.9120 C   0  0  0  0  0  0  0  0  0  0  0  0
   -3.2020   64.2010   77.9660 C   0  0  0  0  0  0  0  0  0  0  0  0
   -3.5680   64.6950   79.2100 C   0  0  0  0  0  0  0  0  0  0  0  0
   -3.6780   66.0800   79.3630 C   0  0  0  0  0  0  0  0  0  0  0  0
   -3.4160   66.9500   78.2900 C   0  0  0  0  0  0  0  0  0  0  0  0
   -3.0390   66.4520   77.0420 C   0  0  0  0  0  0  0  0  0  0  0  0
   -5.5330   62.4260   77.3450 C   0  0  0  0  0  0  0  0  0  0  0  0
    1.4190   64.8520   70.9770 F   0  0  0  0  0  0  0  0  0  0  0  0
    1.1660   63.6620   71.5350 C   0  0  0  0  0  0  0  0  0  0  0  0
   -0.1510   63.2780   71.7640 C   0  0  0  0  0  0  0  0  0  0  0  0
   -0.4150   62.0340   72.3390 C   0  0  0  0  0  0  0  0  0  0  0  0
    0.6420   61.1800   72.6770 C   0  0  0  0  0  0  0  0  0  0  0  0
    1.9640   61.5810   72.4430 C   0  0  0  0  0  0  0  0  0  0  0  0
    2.2250   62.8280   71.8710 C   0  0  0  0  0  0  0  0  0  0  0  0
   -3.4370   57.4070   75.9490 C   0  0  0  0  0  0  0  0  0  0  0  0
   -3.9180   58.4220   75.0940 C   0  0  0  0  0  0  0  0  0  0  0  0
   -5.2140   58.9220   75.2240 C   0  0  0  0  0  0  0  0  0  0  0  0
   -6.0500   58.4030   76.2010 C   0  0  0  0  0  0  0  0  0  0  0  0
   -5.6170   57.3820   77.0340 C   0  0  0  0  0  0  0  0  0  0  0  0
   -4.3170   56.8840   76.9100 C   0  0  0  0  0  0  0  0  0  0  0  0
   -7.2730   58.9170   76.3670 F   0  0  0  0  0  0  0  0  0  0  0  0
    0.2171   59.0161   72.5700 H   0  0  0  0  0  0  0  0  0  0  0  0
    1.4951   60.4352   76.1611 H   0  0  0  0  0  0  0  0  0  0  0  0
    0.4758   61.6301   75.2495 H   0  0  0  0  0  0  0  0  0  0  0  0
   -2.0718   59.3436   77.4878 H   0  0  0  0  0  0  0  0  0  0  0  0
   -2.1359   59.7191   75.6901 H   0  0  0  0  0  0  0  0  0  0  0  0
   -1.9718   56.8329   74.7203 H   0  0  0  0  0  0  0  0  0  0  0  0
   -2.2091   55.4922   77.3900 H   0  0  0  0  0  0  0  0  0  0  0  0
   -1.6884   54.8006   75.8509 H   0  0  0  0  0  0  0  0  0  0  0  0
    0.5218   55.6797   76.1648 H   0  0  0  0  0  0  0  0  0  0  0  0
    0.2100   58.5556   80.4839 H   0  0  0  0  0  0  0  0  0  0  0  0
    2.4675   57.2498   75.7232 H   0  0  0  0  0  0  0  0  0  0  0  0
    4.6589   58.1010   76.5858 H   0  0  0  0  0  0  0  0  0  0  0  0
    4.8322   59.0754   78.8706 H   0  0  0  0  0  0  0  0  0  0  0  0
    2.8130   59.1860   80.3561 H   0  0  0  0  0  0  0  0  0  0  0  0
    0.1579   55.2633   78.9501 H   0  0  0  0  0  0  0  0  0  0  0  0
   -0.1932   53.9299   77.7988 H   0  0  0  0  0  0  0  0  0  0  0  0
    1.4228   54.7144   77.7988 H   0  0  0  0  0  0  0  0  0  0  0  0
   -1.3540   62.7622   78.9788 H   0  0  0  0  0  0  0  0  0  0  0  0
   -2.1921   60.0499   79.0192 H   0  0  0  0  0  0  0  0  0  0  0  0
   -2.3714   61.2980   80.2771 H   0  0  0  0  0  0  0  0  0  0  0  0
   -4.4847   60.1171   78.8656 H   0  0  0  0  0  0  0  0  0  0  0  0
   -4.6065   61.6618   79.7198 H   0  0  0  0  0  0  0  0  0  0  0  0
   -4.1389   61.1489   76.8359 H   0  0  0  0  0  0  0  0  0  0  0  0
   -2.3375   64.8285   74.8693 H   0  0  0  0  0  0  0  0  0  0  0  0
   -3.7660   64.0156   80.0522 H   0  0  0  0  0  0  0  0  0  0  0  0
   -3.9740   66.4956   80.3375 H   0  0  0  0  0  0  0  0  0  0  0  0
   -3.5093   68.0363   78.4360 H   0  0  0  0  0  0  0  0  0  0  0  0
   -2.8302   67.1242   76.1967 H   0  0  0  0  0  0  0  0  0  0  0  0
   -6.0303   62.6465   78.3011 H   0  0  0  0  0  0  0  0  0  0  0  0
   -5.4152   63.3562   76.7699 H   0  0  0  0  0  0  0  0  0  0  0  0
   -6.1433   61.7141   76.7699 H   0  0  0  0  0  0  0  0  0  0  0  0
   -0.9788   63.9501   71.4938 H   0  0  0  0  0  0  0  0  0  0  0  0
   -1.4537   61.7243   72.5267 H   0  0  0  0  0  0  0  0  0  0  0  0
    2.7965   60.9134   72.7099 H   0  0  0  0  0  0  0  0  0  0  0  0
    3.2615   63.1475   71.6878 H   0  0  0  0  0  0  0  0  0  0  0  0
   -3.2592   58.8260   74.3112 H   0  0  0  0  0  0  0  0  0  0  0  0
   -5.5696   59.7212   74.5571 H   0  0  0  0  0  0  0  0  0  0  0  0
   -6.2963   56.9645   77.7917 H   0  0  0  0  0  0  0  0  0  0  0  0
   -3.9795   56.0734   77.5726 H   0  0  0  0  0  0  0  0  0  0  0  0
  2  1  2  0
  3  2  1  0
  4  3  1  0
  5  4  1  0
  6  5  1  1
  7  6  1  0
  7  2  1  0
  8  7  2  0
  9  6  1  0
 10  9  1  0
 11 10  1  0
 12 11  1  0
 12  6  1  0
 12 13  1  1
 14 13  2  0
 15 13  1  0
 16 15  1  0
 17 16  2  0
 17 12  1  0
 18 17  1  0
 19 18  2  0
 20 19  1  0
 21 20  2  0
 21 16  1  0
 22 11  1  0
 23  4  1  0
 24 23  2  0
 25 23  1  0
 26 25  1  0
 27 26  1  0
 28 27  1  0
 29 25  1  0
 29 28  1  0
 29 30  1  6
 31 30  2  0
 32 30  1  0
 33 32  1  0
 34 33  2  0
 34 29  1  0
 35 34  1  0
 36 35  2  0
 37 36  1  0
 38 37  2  0
 38 33  1  0
 39 28  1  0
 41 40  1  0
 42 41  2  0
 43 42  1  0
 44 43  2  0
 44  1  1  0
 45 44  1  0
 46 41  1  0
 46 45  2  0
 47  9  1  0
 48 47  2  0
 49 48  1  0
 50 49  2  0
 51 50  1  0
 52 47  1  0
 52 51  2  0
 53 50  1  0
  1 54  1  0
  3 55  1  0
  3 56  1  0
  5 57  1  0
  5 58  1  0
  9 59  1  6
 10 60  1  0
 10 61  1  0
 11 62  1  6
 15 63  1  0
 18 64  1  0
 19 65  1  0
 20 66  1  0
 21 67  1  0
 22 68  1  0
 22 69  1  0
 22 70  1  0
 25 71  1  1
 26 72  1  0
 26 73  1  0
 27 74  1  0
 27 75  1  0
 28 76  1  6
 32 77  1  0
 35 78  1  0
 36 79  1  0
 37 80  1  0
 38 81  1  0
 39 82  1  0
 39 83  1  0
 39 84  1  0
 42 85  1  0
 43 86  1  0
 45 87  1  0
 46 88  1  0
 48 89  1  0
 49 90  1  0
 51 91  1  0
 52 92  1  0
M  CHG  2  11   1  28   1
M  END
>  <score>  (4) 
-8.491

$$$$
=
     RDKit          3D

 92100  0  0  0  0  0  0  0  0999 V2000
    0.3030   62.7160   80.1250 C   0  0  0  0  0  0  0  0  0  0  0  0
   -0.5870   62.8960   79.1330 C   0  0  0  0  0  0  0  0  0  0  0  0
   -0.3430   63.5000   77.7840 C   0  0  0  0  0  0  0  0  0  0  0  0
   -0.9110   62.6750   76.6940 N   0  0  0  0  0  0  0  0  0  0  0  0
   -1.6850   61.5070   77.0940 C   0  0  0  0  0  0  0  0  0  0  0  0
   -2.7100   61.7630   78.2230 C   0  0  2  0  0  0  0  0  0  0  0  0
   -1.9640   62.4010   79.3780 C   0  0  0  0  0  0  0  0  0  0  0  0
   -2.5160   62.5180   80.4720 O   0  0  0  0  0  0  0  0  0  0  0  0
   -3.3550   60.4300   78.7870 C   0  0  1  0  0  0  0  0  0  0  0  0
   -4.8590   60.7150   78.9690 C   0  0  0  0  0  0  0  0  0  0  0  0
   -4.9850   62.2160   78.9200 N   0  0  1  0  0  4  0  0  0  0  0  0
   -3.9260   62.6880   77.9020 C   0  0  2  0  0  0  0  0  0  0  0  0
   -4.3820   62.4550   76.4110 C   0  0  0  0  0  0  0  0  0  0  0  0
   -4.6840   61.3840   75.9110 O   0  0  0  0  0  0  0  0  0  0  0  0
   -4.3740   63.6710   75.7580 N   0  0  0  0  0  0  0  0  0  0  0  0
   -4.0160   64.6960   76.6170 C   0  0  0  0  0  0  0  0  0  0  0  0
   -3.7610   64.1970   77.8990 C   0  0  0  0  0  0  0  0  0  0  0  0
   -3.4880   65.0900   78.9280 C   0  0  0  0  0  0  0  0  0  0  0  0
   -3.4180   66.4570   78.6300 C   0  0  0  0  0  0  0  0  0  0  0  0
   -3.6420   66.9240   77.3260 C   0  0  0  0  0  0  0  0  0  0  0  0
   -3.9560   66.0370   76.2990 C   0  0  0  0  0  0  0  0  0  0  0  0
   -6.3880   62.6980   78.7160 C   0  0  0  0  0  0  0  0  0  0  0  0
   -0.3620   62.9590   75.4480 C   0  0  0  0  0  0  0  0  0  0  0  0
    0.2410   64.0260   75.2900 O   0  0  0  0  0  0  0  0  0  0  0  0
   -0.3630   62.0160   74.2440 C   0  0  2  0  0  0  0  0  0  0  0  0
   -1.6590   61.3510   73.7970 C   0  0  0  0  0  0  0  0  0  0  0  0
   -1.3650   59.8730   73.5950 C   0  0  0  0  0  0  0  0  0  0  0  0
   -0.0730   59.6170   74.3020 N   0  0  2  0  0  4  0  0  0  0  0  0
    0.7300   60.9350   74.2640 C   0  0  2  0  0  0  0  0  0  0  0  0
    1.7200   60.9780   75.4820 C   0  0  0  0  0  0  0  0  0  0  0  0
    1.4190   60.7020   76.6340 O   0  0  0  0  0  0  0  0  0  0  0  0
    2.9840   61.2460   74.9970 N   0  0  0  0  0  0  0  0  0  0  0  0
    2.9880   61.2890   73.6110 C   0  0  0  0  0  0  0  0  0  0  0  0
    1.6980   61.0850   73.1060 C   0  0  0  0  0  0  0  0  0  0  0  0
    1.4820   61.0870   71.7360 C   0  0  0  0  0  0  0  0  0  0  0  0
    2.5820   61.2780   70.8940 C   0  0  0  0  0  0  0  0  0  0  0  0
    3.8710   61.4740   71.4210 C   0  0  0  0  0  0  0  0  0  0  0  0
    4.0850   61.4820   72.7990 C   0  0  0  0  0  0  0  0  0  0  0  0
    0.6500   58.3810   73.8510 C   0  0  0  0  0  0  0  0  0  0  0  0
    5.6740   64.1570   79.6400 F   0  0  0  0  0  0  0  0  0  0  0  0
    4.3870   63.8150   79.7700 C   0  0  0  0  0  0  0  0  0  0  0  0
    3.4400   64.7950   80.0420 C   0  0  0  0  0  0  0  0  0  0  0  0
    2.0960   64.4380   80.1710 C   0  0  0  0  0  0  0  0  0  0  0  0
    1.7100   63.1000   80.0210 C   0  0  0  0  0  0  0  0  0  0  0  0
    2.6760   62.1220   79.7510 C   0  0  0  0  0  0  0  0  0  0  0  0
    4.0190   62.4820   79.6270 C   0  0  0  0  0  0  0  0  0  0  0  0
   -2.9890   59.1420   78.0600 C   0  0  0  0  0  0  0  0  0  0  0  0
   -1.8020   58.4790   78.4420 C   0  0  0  0  0  0  0  0  0  0  0  0
   -1.3570   57.3450   77.7610 C   0  0  0  0  0  0  0  0  0  0  0  0
   -2.1020   56.8510   76.7010 C   0  0  0  0  0  0  0  0  0  0  0  0
   -3.2890   57.4610   76.3240 C   0  0  0  0  0  0  0  0  0  0  0  0
   -3.7330   58.6020   77.0010 C   0  0  0  0  0  0  0  0  0  0  0  0
   -1.6520   55.7990   76.0100 F   0  0  0  0  0  0  0  0  0  0  0  0
   -0.0451   62.2567   81.0619 H   0  0  0  0  0  0  0  0  0  0  0  0
   -0.8065   64.4971   77.7526 H   0  0  0  0  0  0  0  0  0  0  0  0
    0.7447   63.5607   77.6315 H   0  0  0  0  0  0  0  0  0  0  0  0
   -2.2315   61.1405   76.2125 H   0  0  0  0  0  0  0  0  0  0  0  0
   -0.9628   60.7786   77.4912 H   0  0  0  0  0  0  0  0  0  0  0  0
   -2.9076   60.1837   79.7612 H   0  0  0  0  0  0  0  0  0  0  0  0
   -5.4403   60.2523   78.1578 H   0  0  0  0  0  0  0  0  0  0  0  0
   -5.2451   60.3004   79.9119 H   0  0  0  0  0  0  0  0  0  0  0  0
   -4.7859   62.6549   79.8303 H   0  0  0  0  0  0  0  0  0  0  0  0
   -4.6042   63.7990   74.7622 H   0  0  0  0  0  0  0  0  0  0  0  0
   -3.3301   64.7308   79.9556 H   0  0  0  0  0  0  0  0  0  0  0  0
   -3.1840   67.1748   79.4300 H   0  0  0  0  0  0  0  0  0  0  0  0
   -3.5690   68.0007   77.1128 H   0  0  0  0  0  0  0  0  0  0  0  0
   -4.1484   66.3915   75.2756 H   0  0  0  0  0  0  0  0  0  0  0  0
   -6.8652   62.8619   79.6935 H   0  0  0  0  0  0  0  0  0  0  0  0
   -6.3729   63.6425   78.1523 H   0  0  0  0  0  0  0  0  0  0  0  0
   -6.9565   61.9437   78.1523 H   0  0  0  0  0  0  0  0  0  0  0  0
   -0.1568   62.7918   73.4920 H   0  0  0  0  0  0  0  0  0  0  0  0
   -2.4326   61.4785   74.5685 H   0  0  0  0  0  0  0  0  0  0  0  0
   -2.0273   61.8048   72.8651 H   0  0  0  0  0  0  0  0  0  0  0  0
   -2.1680   59.2594   74.0294 H   0  0  0  0  0  0  0  0  0  0  0  0
   -1.3020   59.6138   72.5278 H   0  0  0  0  0  0  0  0  0  0  0  0
   -0.2426   59.3681   75.2870 H   0  0  0  0  0  0  0  0  0  0  0  0
    3.8151   61.3945   75.5870 H   0  0  0  0  0  0  0  0  0  0  0  0
    0.4728   60.9423   71.3230 H   0  0  0  0  0  0  0  0  0  0  0  0
    2.4369   61.2749   69.8036 H   0  0  0  0  0  0  0  0  0  0  0  0
    4.7205   61.6228   70.7382 H   0  0  0  0  0  0  0  0  0  0  0  0
    5.0890   61.6362   73.2211 H   0  0  0  0  0  0  0  0  0  0  0  0
    0.9839   57.8102   74.7300 H   0  0  0  0  0  0  0  0  0  0  0  0
   -0.0273   57.7601   73.2463 H   0  0  0  0  0  0  0  0  0  0  0  0
    1.5232   58.6671   73.2463 H   0  0  0  0  0  0  0  0  0  0  0  0
    3.7470   65.8452   80.1550 H   0  0  0  0  0  0  0  0  0  0  0  0
    1.3409   65.2073   80.3903 H   0  0  0  0  0  0  0  0  0  0  0  0
    2.3761   61.0699   79.6367 H   0  0  0  0  0  0  0  0  0  0  0  0
    4.7807   61.7165   79.4176 H   0  0  0  0  0  0  0  0  0  0  0  0
   -1.2179   58.8632   79.2913 H   0  0  0  0  0  0  0  0  0  0  0  0
   -0.4234   56.8475   78.0625 H   0  0  0  0  0  0  0  0  0  0  0  0
   -3.8807   57.0482   75.4937 H   0  0  0  0  0  0  0  0  0  0  0  0
   -4.6762   59.0809   76.6993 H   0  0  0  0  0  0  0  0  0  0  0  0
  2  1  2  0
  3  2  1  0
  4  3  1  0
  5  4  1  0
  6  5  1  6
  7  6  1  0
  7  2  1  0
  8  7  2  0
  9  6  1  0
 10  9  1  0
 11 10  1  0
 12 11  1  0
 12  6  1  0
 12 13  1  6
 14 13  2  0
 15 13  1  0
 16 15  1  0
 17 16  2  0
 17 12  1  0
 18 17  1  0
 19 18  2  0
 20 19  1  0
 21 20  2  0
 21 16  1  0
 22 11  1  0
 23  4  1  0
 24 23  2  0
 25 23  1  0
 26 25  1  0
 27 26  1  0
 28 27  1  0
 29 25  1  0
 29 28  1  0
 29 30  1  1
 31 30  2  0
 32 30  1  0
 33 32  1  0
 34 33  2  0
 34 29  1  0
 35 34  1  0
 36 35  2  0
 37 36  1  0
 38 37  2  0
 38 33  1  0
 39 28  1  0
 41 40  1  0
 42 41  2  0
 43 42  1  0
 44 43  2  0
 44  1  1  0
 45 44  1  0
 46 41  1  0
 46 45  2  0
 47  9  1  0
 48 47  2  0
 49 48  1  0
 50 49  2  0
 51 50  1  0
 52 47  1  0
 52 51  2  0
 53 50  1  0
  1 54  1  0
  3 55  1  0
  3 56  1  0
  5 57  1  0
  5 58  1  0
  9 59  1  1
 10 60  1  0
 10 61  1  0
 11 62  1  1
 15 63  1  0
 18 64  1  0
 19 65  1  0
 20 66  1  0
 21 67  1  0
 22 68  1  0
 22 69  1  0
 22 70  1  0
 25 71  1  6
 26 72  1  0
 26 73  1  0
 27 74  1  0
 27 75  1  0
 28 76  1  1
 32 77  1  0
 35 78  1  0
 36 79  1  0
 37 80  1  0
 38 81  1  0
 39 82  1  0
 39 83  1  0
 39 84  1  0
 42 85  1  0
 43 86  1  0
 45 87  1  0
 46 88  1  0
 48 89  1  0
 49 90  1  0
 51 91  1  0
 52 92  1  0
M  CHG  2  11   1  28   1
M  END
>  <score>  (5) 
-8.381

$$$$
=
     RDKit          3D

 92100  0  0  0  0  0  0  0  0999 V2000
    2.0980   60.3260   74.1200 C   0  0  0  0  0  0  0  0  0  0  0  0
    1.7230   60.1240   75.3950 C   0  0  0  0  0  0  0  0  0  0  0  0
    0.7070   60.8940   76.1820 C   0  0  0  0  0  0  0  0  0  0  0  0
   -0.2410   60.0040   76.8890 N   0  0  0  0  0  0  0  0  0  0  0  0
    0.0180   58.5730   76.8020 C   0  0  0  0  0  0  0  0  0  0  0  0
    1.4890   58.1620   77.0440 C   0  0  2  0  0  0  0  0  0  0  0  0
    2.3490   58.9780   76.0980 C   0  0  0  0  0  0  0  0  0  0  0  0
    3.5370   58.6920   75.9540 O   0  0  0  0  0  0  0  0  0  0  0  0
    1.7700   56.6400   76.7080 C   0  0  1  0  0  0  0  0  0  0  0  0
    2.6720   56.1030   77.8360 C   0  0  0  0  0  0  0  0  0  0  0  0
    3.2110   57.3280   78.5280 N   0  0  1  0  0  4  0  0  0  0  0  0
    2.0720   58.3680   78.4770 C   0  0  2  0  0  0  0  0  0  0  0  0
    0.9490   58.0800   79.5460 C   0  0  0  0  0  0  0  0  0  0  0  0
    0.2900   57.0570   79.6370 O   0  0  0  0  0  0  0  0  0  0  0  0
    0.8290   59.1870   80.3610 N   0  0  0  0  0  0  0  0  0  0  0  0
    1.7460   60.1640   80.0130 C   0  0  0  0  0  0  0  0  0  0  0  0
    2.5260   59.7440   78.9300 C   0  0  0  0  0  0  0  0  0  0  0  0
    3.5750   60.5480   78.5020 C   0  0  0  0  0  0  0  0  0  0  0  0
    3.7760   61.7820   79.1340 C   0  0  0  0  0  0  0  0  0  0  0  0
    2.9530   62.1930   80.1940 C   0  0  0  0  0  0  0  0  0  0  0  0
    1.9260   61.3720   80.6530 C   0  0  0  0  0  0  0  0  0  0  0  0
    3.8170   57.0480   79.8690 C   0  0  0  0  0  0  0  0  0  0  0  0
   -1.4140   60.6460   77.2720 C   0  0  0  0  0  0  0  0  0  0  0  0
   -1.4340   61.8810   77.3150 O   0  0  0  0  0  0  0  0  0  0  0  0
   -2.7440   59.9530   77.5740 C   0  0  2  0  0  0  0  0  0  0  0  0
   -2.7770   58.7200   78.4690 C   0  0  0  0  0  0  0  0  0  0  0  0
   -3.6200   57.6690   77.7650 C   0  0  0  0  0  0  0  0  0  0  0  0
   -3.7160   58.1140   76.3410 N   0  0  2  0  0  4  0  0  0  0  0  0
   -3.6170   59.6550   76.3430 C   0  0  2  0  0  0  0  0  0  0  0  0
   -3.0500   60.1430   74.9620 C   0  0  0  0  0  0  0  0  0  0  0  0
   -2.0800   59.6600   74.3980 O   0  0  0  0  0  0  0  0  0  0  0  0
   -3.9090   61.0990   74.4610 N   0  0  0  0  0  0  0  0  0  0  0  0
   -5.0240   61.2430   75.2730 C   0  0  0  0  0  0  0  0  0  0  0  0
   -4.9360   60.4020   76.3880 C   0  0  0  0  0  0  0  0  0  0  0  0
   -5.9550   60.3880   77.3290 C   0  0  0  0  0  0  0  0  0  0  0  0
   -7.0610   61.2170   77.1170 C   0  0  0  0  0  0  0  0  0  0  0  0
   -7.1340   62.0500   75.9860 C   0  0  0  0  0  0  0  0  0  0  0  0
   -6.1040   62.0690   75.0450 C   0  0  0  0  0  0  0  0  0  0  0  0
   -4.8640   57.5200   75.5780 C   0  0  0  0  0  0  0  0  0  0  0  0
    0.0170   64.3240   70.8250 F   0  0  0  0  0  0  0  0  0  0  0  0
    0.5080   63.3710   71.6260 C   0  0  0  0  0  0  0  0  0  0  0  0
   -0.3190   62.3360   72.0480 C   0  0  0  0  0  0  0  0  0  0  0  0
    0.1950   61.3370   72.8780 C   0  0  0  0  0  0  0  0  0  0  0  0
    1.5380   61.3800   73.2750 C   0  0  0  0  0  0  0  0  0  0  0  0
    2.3590   62.4310   72.8450 C   0  0  0  0  0  0  0  0  0  0  0  0
    1.8400   63.4290   72.0190 C   0  0  0  0  0  0  0  0  0  0  0  0
    0.5580   55.7940   76.3430 C   0  0  0  0  0  0  0  0  0  0  0  0
    0.1030   55.8250   75.0070 C   0  0  0  0  0  0  0  0  0  0  0  0
   -1.0530   55.1460   74.6200 C   0  0  0  0  0  0  0  0  0  0  0  0
   -1.7610   54.4150   75.5620 C   0  0  0  0  0  0  0  0  0  0  0  0
   -1.3210   54.3380   76.8760 C   0  0  0  0  0  0  0  0  0  0  0  0
   -0.1660   55.0230   77.2660 C   0  0  0  0  0  0  0  0  0  0  0  0
   -2.9000   53.8090   75.2110 F   0  0  0  0  0  0  0  0  0  0  0  0
    2.8651   59.6649   73.6905 H   0  0  0  0  0  0  0  0  0  0  0  0
    1.2298   61.5160   76.9235 H   0  0  0  0  0  0  0  0  0  0  0  0
    0.1305   61.5120   75.4779 H   0  0  0  0  0  0  0  0  0  0  0  0
   -0.6063   58.0664   77.5527 H   0  0  0  0  0  0  0  0  0  0  0  0
   -0.2187   58.2788   75.7689 H   0  0  0  0  0  0  0  0  0  0  0  0
    2.2995   56.5625   75.7470 H   0  0  0  0  0  0  0  0  0  0  0  0
    2.0881   55.4892   78.5376 H   0  0  0  0  0  0  0  0  0  0  0  0
    3.4775   55.4620   77.4483 H   0  0  0  0  0  0  0  0  0  0  0  0
    4.0351   57.7167   78.0477 H   0  0  0  0  0  0  0  0  0  0  0  0
    0.1467   59.2749   81.1276 H   0  0  0  0  0  0  0  0  0  0  0  0
    4.2342   60.2224   77.6838 H   0  0  0  0  0  0  0  0  0  0  0  0
    4.5908   62.4384   78.7945 H   0  0  0  0  0  0  0  0  0  0  0  0
    3.1206   63.1722   80.6664 H   0  0  0  0  0  0  0  0  0  0  0  0
    1.2837   61.6752   81.4930 H   0  0  0  0  0  0  0  0  0  0  0  0
    3.1225   57.3689   80.6594 H   0  0  0  0  0  0  0  0  0  0  0  0
    4.0100   55.9694   79.9662 H   0  0  0  0  0  0  0  0  0  0  0  0
    4.7635   57.6001   79.9662 H   0  0  0  0  0  0  0  0  0  0  0  0
   -3.1599   60.7691   78.1831 H   0  0  0  0  0  0  0  0  0  0  0  0
   -1.7562   58.3408   78.6243 H   0  0  0  0  0  0  0  0  0  0  0  0
   -3.2044   58.9655   79.4524 H   0  0  0  0  0  0  0  0  0  0  0  0
   -3.1348   56.6837   77.8270 H   0  0  0  0  0  0  0  0  0  0  0  0
   -4.6134   57.5695   78.2269 H   0  0  0  0  0  0  0  0  0  0  0  0
   -2.9303   57.7381   75.7911 H   0  0  0  0  0  0  0  0  0  0  0  0
   -3.7440   61.6354   73.5973 H   0  0  0  0  0  0  0  0  0  0  0  0
   -5.8947   59.7425   78.2176 H   0  0  0  0  0  0  0  0  0  0  0  0
   -7.8856   61.2177   77.8450 H   0  0  0  0  0  0  0  0  0  0  0  0
   -8.0138   62.6943   75.8416 H   0  0  0  0  0  0  0  0  0  0  0  0
   -6.1517   62.7168   74.1572 H   0  0  0  0  0  0  0  0  0  0  0  0
   -5.6127   57.1326   76.2847 H   0  0  0  0  0  0  0  0  0  0  0  0
   -5.3231   58.2937   74.9451 H   0  0  0  0  0  0  0  0  0  0  0  0
   -4.4976   56.6983   74.9451 H   0  0  0  0  0  0  0  0  0  0  0  0
   -1.3716   62.3041   71.7302 H   0  0  0  0  0  0  0  0  0  0  0  0
   -0.4540   60.5172   73.2197 H   0  0  0  0  0  0  0  0  0  0  0  0
    3.4127   62.4694   73.1585 H   0  0  0  0  0  0  0  0  0  0  0  0
    2.4811   64.2565   71.6810 H   0  0  0  0  0  0  0  0  0  0  0  0
    0.6705   56.3952   74.2568 H   0  0  0  0  0  0  0  0  0  0  0  0
   -1.3996   55.1902   73.5770 H   0  0  0  0  0  0  0  0  0  0  0  0
   -1.8801   53.7389   77.6098 H   0  0  0  0  0  0  0  0  0  0  0  0
    0.1793   54.9569   78.3083 H   0  0  0  0  0  0  0  0  0  0  0  0
  2  1  2  0
  3  2  1  0
  4  3  1  0
  5  4  1  0
  6  5  1  1
  7  6  1  0
  7  2  1  0
  8  7  2  0
  9  6  1  0
 10  9  1  0
 11 10  1  0
 12 11  1  0
 12  6  1  0
 12 13  1  1
 14 13  2  0
 15 13  1  0
 16 15  1  0
 17 16  2  0
 17 12  1  0
 18 17  1  0
 19 18  2  0
 20 19  1  0
 21 20  2  0
 21 16  1  0
 22 11  1  0
 23  4  1  0
 24 23  2  0
 25 23  1  0
 26 25  1  0
 27 26  1  0
 28 27  1  0
 29 25  1  0
 29 28  1  0
 29 30  1  6
 31 30  2  0
 32 30  1  0
 33 32  1  0
 34 33  2  0
 34 29  1  0
 35 34  1  0
 36 35  2  0
 37 36  1  0
 38 37  2  0
 38 33  1  0
 39 28  1  0
 41 40  1  0
 42 41  2  0
 43 42  1  0
 44 43  2  0
 44  1  1  0
 45 44  1  0
 46 41  1  0
 46 45  2  0
 47  9  1  0
 48 47  2  0
 49 48  1  0
 50 49  2  0
 51 50  1  0
 52 47  1  0
 52 51  2  0
 53 50  1  0
  1 54  1  0
  3 55  1  0
  3 56  1  0
  5 57  1  0
  5 58  1  0
  9 59  1  6
 10 60  1  0
 10 61  1  0
 11 62  1  6
 15 63  1  0
 18 64  1  0
 19 65  1  0
 20 66  1  0
 21 67  1  0
 22 68  1  0
 22 69  1  0
 22 70  1  0
 25 71  1  1
 26 72  1  0
 26 73  1  0
 27 74  1  0
 27 75  1  0
 28 76  1  6
 32 77  1  0
 35 78  1  0
 36 79  1  0
 37 80  1  0
 38 81  1  0
 39 82  1  0
 39 83  1  0
 39 84  1  0
 42 85  1  0
 43 86  1  0
 45 87  1  0
 46 88  1  0
 48 89  1  0
 49 90  1  0
 51 91  1  0
 52 92  1  0
M  CHG  2  11   1  28   1
M  END
>  <score>  (6) 
-8.154

$$$$
=
     RDKit          3D

 92100  0  0  0  0  0  0  0  0999 V2000
   -3.4180   58.8720   75.4130 C   0  0  0  0  0  0  0  0  0  0  0  0
   -2.4010   59.6640   75.7960 C   0  0  0  0  0  0  0  0  0  0  0  0
   -1.6260   59.6000   77.0760 C   0  0  0  0  0  0  0  0  0  0  0  0
   -0.1640   59.6510   76.8450 N   0  0  0  0  0  0  0  0  0  0  0  0
    0.2720   59.8570   75.4700 C   0  0  0  0  0  0  0  0  0  0  0  0
   -0.4740   60.9800   74.7120 C   0  0  2  0  0  0  0  0  0  0  0  0
   -1.9590   60.6930   74.8250 C   0  0  0  0  0  0  0  0  0  0  0  0
   -2.7570   61.3290   74.1360 O   0  0  0  0  0  0  0  0  0  0  0  0
   -0.1390   61.0120   73.1640 C   0  0  1  0  0  0  0  0  0  0  0  0
    0.0380   62.4950   72.7860 C   0  0  0  0  0  0  0  0  0  0  0  0
   -0.5690   63.2680   73.9270 N   0  0  1  0  0  4  0  0  0  0  0  0
   -0.2580   62.4480   75.1970 C   0  0  2  0  0  0  0  0  0  0  0  0
    1.2330   62.6270   75.6760 C   0  0  0  0  0  0  0  0  0  0  0  0
    2.2330   62.3800   75.0210 O   0  0  0  0  0  0  0  0  0  0  0  0
    1.2190   63.1050   76.9710 N   0  0  0  0  0  0  0  0  0  0  0  0
   -0.0760   63.3120   77.4120 C   0  0  0  0  0  0  0  0  0  0  0  0
   -0.9970   62.9700   76.4160 C   0  0  0  0  0  0  0  0  0  0  0  0
   -2.3480   63.2080   76.6350 C   0  0  0  0  0  0  0  0  0  0  0  0
   -2.7460   63.7260   77.8730 C   0  0  0  0  0  0  0  0  0  0  0  0
   -1.8020   64.0250   78.8680 C   0  0  0  0  0  0  0  0  0  0  0  0
   -0.4430   63.8260   78.6380 C   0  0  0  0  0  0  0  0  0  0  0  0
   -0.1900   64.7180   73.9440 C   0  0  0  0  0  0  0  0  0  0  0  0
    0.5780   59.1830   77.9230 C   0  0  0  0  0  0  0  0  0  0  0  0
    0.0380   59.1040   79.0320 O   0  0  0  0  0  0  0  0  0  0  0  0
    2.0160   58.6660   77.8500 C   0  0  2  0  0  0  0  0  0  0  0  0
    3.0680   59.4400   77.0650 C   0  0  0  0  0  0  0  0  0  0  0  0
    3.8020   58.4430   76.1840 C   0  0  0  0  0  0  0  0  0  0  0  0
    2.9370   57.2250   76.1410 N   0  0  2  0  0  4  0  0  0  0  0  0
    2.1540   57.1810   77.4710 C   0  0  2  0  0  0  0  0  0  0  0  0
    0.8120   56.3950   77.2610 C   0  0  0  0  0  0  0  0  0  0  0  0
    0.0430   56.5670   76.3270 O   0  0  0  0  0  0  0  0  0  0  0  0
    0.7350   55.4130   78.2260 N   0  0  0  0  0  0  0  0  0  0  0  0
    1.8920   55.3730   78.9900 C   0  0  0  0  0  0  0  0  0  0  0  0
    2.7880   56.3680   78.5830 C   0  0  0  0  0  0  0  0  0  0  0  0
    4.0150   56.4990   79.2190 C   0  0  0  0  0  0  0  0  0  0  0  0
    4.3230   55.6050   80.2480 C   0  0  0  0  0  0  0  0  0  0  0  0
    3.4120   54.6060   80.6370 C   0  0  0  0  0  0  0  0  0  0  0  0
    2.1750   54.4820   80.0040 C   0  0  0  0  0  0  0  0  0  0  0  0
    3.6510   55.9650   75.7440 C   0  0  0  0  0  0  0  0  0  0  0  0
   -5.3230   54.6990   78.5950 F   0  0  0  0  0  0  0  0  0  0  0  0
   -4.8780   55.6980   77.8240 C   0  0  0  0  0  0  0  0  0  0  0  0
   -5.5570   56.9110   77.8120 C   0  0  0  0  0  0  0  0  0  0  0  0
   -5.0880   57.9560   77.0130 C   0  0  0  0  0  0  0  0  0  0  0  0
   -3.9380   57.7780   76.2330 C   0  0  0  0  0  0  0  0  0  0  0  0
   -3.2660   56.5490   76.2530 C   0  0  0  0  0  0  0  0  0  0  0  0
   -3.7400   55.5060   77.0500 C   0  0  0  0  0  0  0  0  0  0  0  0
    0.9450   60.0530   72.6880 C   0  0  0  0  0  0  0  0  0  0  0  0
    1.9590   60.5600   71.8470 C   0  0  0  0  0  0  0  0  0  0  0  0
    2.9320   59.7220   71.3010 C   0  0  0  0  0  0  0  0  0  0  0  0
    2.9120   58.3690   71.6020 C   0  0  0  0  0  0  0  0  0  0  0  0
    1.9490   57.8460   72.4530 C   0  0  0  0  0  0  0  0  0  0  0  0
    0.9690   58.6830   72.9950 C   0  0  0  0  0  0  0  0  0  0  0  0
    3.8080   57.5520   71.0380 F   0  0  0  0  0  0  0  0  0  0  0  0
   -3.8826   59.0562   74.4331 H   0  0  0  0  0  0  0  0  0  0  0  0
   -1.9151   60.4521   77.7087 H   0  0  0  0  0  0  0  0  0  0  0  0
   -1.8585   58.6427   77.5654 H   0  0  0  0  0  0  0  0  0  0  0  0
    1.3429   60.1078   75.4850 H   0  0  0  0  0  0  0  0  0  0  0  0
    0.0513   58.9227   74.9329 H   0  0  0  0  0  0  0  0  0  0  0  0
   -0.9767   60.5856   72.5926 H   0  0  0  0  0  0  0  0  0  0  0  0
    1.1047   62.7409   72.6777 H   0  0  0  0  0  0  0  0  0  0  0  0
   -0.4417   62.7347   71.8256 H   0  0  0  0  0  0  0  0  0  0  0  0
   -1.5908   63.3600   73.8358 H   0  0  0  0  0  0  0  0  0  0  0  0
    2.0621   63.2841   77.5350 H   0  0  0  0  0  0  0  0  0  0  0  0
   -3.0898   62.9938   75.8516 H   0  0  0  0  0  0  0  0  0  0  0  0
   -3.8141   63.9013   78.0690 H   0  0  0  0  0  0  0  0  0  0  0  0
   -2.1387   64.4200   79.8379 H   0  0  0  0  0  0  0  0  0  0  0  0
    0.3081   64.0692   79.4040 H   0  0  0  0  0  0  0  0  0  0  0  0
   -0.1003   65.0613   74.9852 H   0  0  0  0  0  0  0  0  0  0  0  0
    0.7732   64.8513   73.4296 H   0  0  0  0  0  0  0  0  0  0  0  0
   -0.9647   65.3055   73.4296 H   0  0  0  0  0  0  0  0  0  0  0  0
    2.2534   58.8429   78.9094 H   0  0  0  0  0  0  0  0  0  0  0  0
    2.5839   60.2068   76.4424 H   0  0  0  0  0  0  0  0  0  0  0  0
    3.7681   59.9449   77.7469 H   0  0  0  0  0  0  0  0  0  0  0  0
    3.9374   58.8528   75.1722 H   0  0  0  0  0  0  0  0  0  0  0  0
    4.8036   58.2150   76.5775 H   0  0  0  0  0  0  0  0  0  0  0  0
    2.2604   57.2900   75.3671 H   0  0  0  0  0  0  0  0  0  0  0  0
   -0.0749   54.7912   78.3616 H   0  0  0  0  0  0  0  0  0  0  0  0
    4.7250   57.2846   78.9213 H   0  0  0  0  0  0  0  0  0  0  0  0
    5.2925   55.6836   80.7616 H   0  0  0  0  0  0  0  0  0  0  0  0
    3.6782   53.9144   81.4499 H   0  0  0  0  0  0  0  0  0  0  0  0
    1.4549   53.7055   80.3014 H   0  0  0  0  0  0  0  0  0  0  0  0
    3.9605   55.4188   76.6473 H   0  0  0  0  0  0  0  0  0  0  0  0
    2.9763   55.3338   75.1470 H   0  0  0  0  0  0  0  0  0  0  0  0
    4.5392   56.2194   75.1470 H   0  0  0  0  0  0  0  0  0  0  0  0
   -6.4581   57.0469   78.4280 H   0  0  0  0  0  0  0  0  0  0  0  0
   -5.6211   58.9180   76.9961 H   0  0  0  0  0  0  0  0  0  0  0  0
   -2.3639   56.4059   75.6400 H   0  0  0  0  0  0  0  0  0  0  0  0
   -3.2164   54.5387   77.0654 H   0  0  0  0  0  0  0  0  0  0  0  0
    1.9826   61.6356   71.6178 H   0  0  0  0  0  0  0  0  0  0  0  0
    3.7081   60.1314   70.6376 H   0  0  0  0  0  0  0  0  0  0  0  0
    1.9566   56.7743   72.7009 H   0  0  0  0  0  0  0  0  0  0  0  0
    0.2081   58.2635   73.6696 H   0  0  0  0  0  0  0  0  0  0  0  0
  2  1  2  0
  3  2  1  0
  4  3  1  0
  5  4  1  0
  6  5  1  1
  7  6  1  0
  7  2  1  0
  8  7  2  0
  9  6  1  0
 10  9  1  0
 11 10  1  0
 12 11  1  0
 12  6  1  0
 12 13  1  1
 14 13  2  0
 15 13  1  0
 16 15  1  0
 17 16  2  0
 17 12  1  0
 18 17  1  0
 19 18  2  0
 20 19  1  0
 21 20  2  0
 21 16  1  0
 22 11  1  0
 23  4  1  0
 24 23  2  0
 25 23  1  0
 26 25  1  0
 27 26  1  0
 28 27  1  0
 29 25  1  0
 29 28  1  0
 29 30  1  6
 31 30  2  0
 32 30  1  0
 33 32  1  0
 34 33  2  0
 34 29  1  0
 35 34  1  0
 36 35  2  0
 37 36  1  0
 38 37  2  0
 38 33  1  0
 39 28  1  0
 41 40  1  0
 42 41  2  0
 43 42  1  0
 44 43  2  0
 44  1  1  0
 45 44  1  0
 46 41  1  0
 46 45  2  0
 47  9  1  0
 48 47  2  0
 49 48  1  0
 50 49  2  0
 51 50  1  0
 52 47  1  0
 52 51  2  0
 53 50  1  0
  1 54  1  0
  3 55  1  0
  3 56  1  0
  5 57  1  0
  5 58  1  0
  9 59  1  6
 10 60  1  0
 10 61  1  0
 11 62  1  6
 15 63  1  0
 18 64  1  0
 19 65  1  0
 20 66  1  0
 21 67  1  0
 22 68  1  0
 22 69  1  0
 22 70  1  0
 25 71  1  1
 26 72  1  0
 26 73  1  0
 27 74  1  0
 27 75  1  0
 28 76  1  6
 32 77  1  0
 35 78  1  0
 36 79  1  0
 37 80  1  0
 38 81  1  0
 39 82  1  0
 39 83  1  0
 39 84  1  0
 42 85  1  0
 43 86  1  0
 45 87  1  0
 46 88  1  0
 48 89  1  0
 49 90  1  0
 51 91  1  0
 52 92  1  0
M  CHG  2  11   1  28   1
M  END
>  <score>  (7) 
-8.133

$$$$
=
     RDKit          3D

 92100  0  0  0  0  0  0  0  0999 V2000
    1.9230   62.1400   74.0900 C   0  0  0  0  0  0  0  0  0  0  0  0
    1.0830   61.3160   74.7410 C   0  0  0  0  0  0  0  0  0  0  0  0
    0.6270   59.9540   74.3140 C   0  0  0  0  0  0  0  0  0  0  0  0
    0.7350   58.9630   75.4080 N   0  0  0  0  0  0  0  0  0  0  0  0
    1.1480   59.4700   76.7110 C   0  0  0  0  0  0  0  0  0  0  0  0
    0.4250   60.7600   77.1650 C   0  0  2  0  0  0  0  0  0  0  0  0
    0.5800   61.7810   76.0560 C   0  0  0  0  0  0  0  0  0  0  0  0
    0.2660   62.9550   76.2580 O   0  0  0  0  0  0  0  0  0  0  0  0
    1.0660   61.4040   78.4630 C   0  0  1  0  0  0  0  0  0  0  0  0
   -0.1090   61.8420   79.3590 C   0  0  0  0  0  0  0  0  0  0  0  0
   -1.3160   61.8370   78.4580 N   0  0  1  0  0  4  0  0  0  0  0  0
   -1.1010   60.6620   77.4810 C   0  0  2  0  0  0  0  0  0  0  0  0
   -1.4100   59.2660   78.1450 C   0  0  0  0  0  0  0  0  0  0  0  0
   -0.8700   58.8080   79.1390 O   0  0  0  0  0  0  0  0  0  0  0  0
   -2.3920   58.6400   77.4040 N   0  0  0  0  0  0  0  0  0  0  0  0
   -2.8150   59.4410   76.3580 C   0  0  0  0  0  0  0  0  0  0  0  0
   -2.1180   60.6540   76.3540 C   0  0  0  0  0  0  0  0  0  0  0  0
   -2.4780   61.6360   75.4390 C   0  0  0  0  0  0  0  0  0  0  0  0
   -3.4870   61.3510   74.5110 C   0  0  0  0  0  0  0  0  0  0  0  0
   -4.1440   60.1100   74.5160 C   0  0  0  0  0  0  0  0  0  0  0  0
   -3.8140   59.1380   75.4580 C   0  0  0  0  0  0  0  0  0  0  0  0
   -2.6200   61.8790   79.1940 C   0  0  0  0  0  0  0  0  0  0  0  0
    0.7290   57.6470   74.9590 C   0  0  0  0  0  0  0  0  0  0  0  0
    0.3090   57.4050   73.8220 O   0  0  0  0  0  0  0  0  0  0  0  0
    1.2830   56.4470   75.7280 C   0  0  2  0  0  0  0  0  0  0  0  0
    2.5350   55.7330   75.2330 C   0  0  0  0  0  0  0  0  0  0  0  0
    2.2420   54.2410   75.2420 C   0  0  0  0  0  0  0  0  0  0  0  0
    0.7550   54.1210   75.3290 N   0  0  2  0  0  4  0  0  0  0  0  0
    0.2450   55.3680   76.0840 C   0  0  2  0  0  0  0  0  0  0  0  0
   -1.2350   55.6680   75.6560 C   0  0  0  0  0  0  0  0  0  0  0  0
   -1.6380   55.6810   74.5030 O   0  0  0  0  0  0  0  0  0  0  0  0
   -1.9980   55.7750   76.8010 N   0  0  0  0  0  0  0  0  0  0  0  0
   -1.2460   55.4890   77.9310 C   0  0  0  0  0  0  0  0  0  0  0  0
    0.0810   55.2110   77.5830 C   0  0  0  0  0  0  0  0  0  0  0  0
    1.0040   54.8940   78.5700 C   0  0  0  0  0  0  0  0  0  0  0  0
    0.5630   54.8480   79.8960 C   0  0  0  0  0  0  0  0  0  0  0  0
   -0.7760   55.1240   80.2230 C   0  0  0  0  0  0  0  0  0  0  0  0
   -1.7010   55.4510   79.2310 C   0  0  0  0  0  0  0  0  0  0  0  0
    0.2650   52.7920   75.8270 C   0  0  0  0  0  0  0  0  0  0  0  0
    4.3040   60.9600   69.1810 F   0  0  0  0  0  0  0  0  0  0  0  0
    3.7310   61.2290   70.3600 C   0  0  0  0  0  0  0  0  0  0  0  0
    4.3870   60.8840   71.5360 C   0  0  0  0  0  0  0  0  0  0  0  0
    3.7920   61.1710   72.7670 C   0  0  0  0  0  0  0  0  0  0  0  0
    2.5450   61.8070   72.8090 C   0  0  0  0  0  0  0  0  0  0  0  0
    1.8940   62.1460   71.6160 C   0  0  0  0  0  0  0  0  0  0  0  0
    2.4900   61.8540   70.3880 C   0  0  0  0  0  0  0  0  0  0  0  0
    2.1760   60.6070   79.1350 C   0  0  0  0  0  0  0  0  0  0  0  0
    3.5100   61.0230   78.9310 C   0  0  0  0  0  0  0  0  0  0  0  0
    4.5820   60.2900   79.4410 C   0  0  0  0  0  0  0  0  0  0  0  0
    4.3330   59.1410   80.1740 C   0  0  0  0  0  0  0  0  0  0  0  0
    3.0330   58.7250   80.4200 C   0  0  0  0  0  0  0  0  0  0  0  0
    1.9580   59.4540   79.9040 C   0  0  0  0  0  0  0  0  0  0  0  0
    5.3570   58.4040   80.6180 F   0  0  0  0  0  0  0  0  0  0  0  0
    2.1542   63.1147   74.5444 H   0  0  0  0  0  0  0  0  0  0  0  0
   -0.4235   60.0158   73.9937 H   0  0  0  0  0  0  0  0  0  0  0  0
    1.2762   59.6219   73.4904 H   0  0  0  0  0  0  0  0  0  0  0  0
    0.9540   58.6877   77.4596 H   0  0  0  0  0  0  0  0  0  0  0  0
    2.2132   59.7286   76.6188 H   0  0  0  0  0  0  0  0  0  0  0  0
    1.6636   62.2848   78.1855 H   0  0  0  0  0  0  0  0  0  0  0  0
   -0.2451   61.1343   80.1900 H   0  0  0  0  0  0  0  0  0  0  0  0
    0.0637   62.8306   79.8094 H   0  0  0  0  0  0  0  0  0  0  0  0
   -1.3996   62.7075   77.9138 H   0  0  0  0  0  0  0  0  0  0  0  0
   -2.7616   57.6995   77.6036 H   0  0  0  0  0  0  0  0  0  0  0  0
   -1.9805   62.6171   75.4437 H   0  0  0  0  0  0  0  0  0  0  0  0
   -3.7692   62.1105   73.7670 H   0  0  0  0  0  0  0  0  0  0  0  0
   -4.9256   59.9036   73.7701 H   0  0  0  0  0  0  0  0  0  0  0  0
   -4.3304   58.1670   75.4825 H   0  0  0  0  0  0  0  0  0  0  0  0
   -2.4299   61.8729   80.2774 H   0  0  0  0  0  0  0  0  0  0  0  0
   -3.1649   62.7952   78.9225 H   0  0  0  0  0  0  0  0  0  0  0  0
   -3.2228   60.9998   78.9225 H   0  0  0  0  0  0  0  0  0  0  0  0
    1.6022   57.0178   76.6125 H   0  0  0  0  0  0  0  0  0  0  0  0
    2.7766   56.0624   74.2117 H   0  0  0  0  0  0  0  0  0  0  0  0
    3.3945   55.9636   75.8795 H   0  0  0  0  0  0  0  0  0  0  0  0
    2.6111   53.7721   74.3179 H   0  0  0  0  0  0  0  0  0  0  0  0
    2.7398   53.7347   76.0821 H   0  0  0  0  0  0  0  0  0  0  0  0
    0.3370   54.1178   74.3876 H   0  0  0  0  0  0  0  0  0  0  0  0
   -2.9950   56.0333   76.8147 H   0  0  0  0  0  0  0  0  0  0  0  0
    2.0536   54.6847   78.3160 H   0  0  0  0  0  0  0  0  0  0  0  0
    1.2743   54.5921   80.6951 H   0  0  0  0  0  0  0  0  0  0  0  0
   -1.0985   55.0816   81.2738 H   0  0  0  0  0  0  0  0  0  0  0  0
   -2.7507   55.6696   79.4767 H   0  0  0  0  0  0  0  0  0  0  0  0
    0.2643   52.7902   76.9270 H   0  0  0  0  0  0  0  0  0  0  0  0
   -0.7569   52.6168   75.4594 H   0  0  0  0  0  0  0  0  0  0  0  0
    0.9285   51.9954   75.4594 H   0  0  0  0  0  0  0  0  0  0  0  0
    5.3682   60.3882   71.4976 H   0  0  0  0  0  0  0  0  0  0  0  0
    4.3024   60.8977   73.7023 H   0  0  0  0  0  0  0  0  0  0  0  0
    0.9129   62.6424   71.6468 H   0  0  0  0  0  0  0  0  0  0  0  0
    1.9809   62.1168   69.4489 H   0  0  0  0  0  0  0  0  0  0  0  0
    3.7076   61.9419   78.3595 H   0  0  0  0  0  0  0  0  0  0  0  0
    5.6156   60.6214   79.2627 H   0  0  0  0  0  0  0  0  0  0  0  0
    2.8482   57.8222   81.0206 H   0  0  0  0  0  0  0  0  0  0  0  0
    0.9291   59.1199   80.1031 H   0  0  0  0  0  0  0  0  0  0  0  0
  2  1  2  0
  3  2  1  0
  4  3  1  0
  5  4  1  0
  6  5  1  6
  7  6  1  0
  7  2  1  0
  8  7  2  0
  9  6  1  0
 10  9  1  0
 11 10  1  0
 12 11  1  0
 12  6  1  0
 12 13  1  1
 14 13  2  0
 15 13  1  0
 16 15  1  0
 17 16  2  0
 17 12  1  0
 18 17  1  0
 19 18  2  0
 20 19  1  0
 21 20  2  0
 21 16  1  0
 22 11  1  0
 23  4  1  0
 24 23  2  0
 25 23  1  0
 26 25  1  0
 27 26  1  0
 28 27  1  0
 29 25  1  0
 29 28  1  0
 29 30  1  6
 31 30  2  0
 32 30  1  0
 33 32  1  0
 34 33  2  0
 34 29  1  0
 35 34  1  0
 36 35  2  0
 37 36  1  0
 38 37  2  0
 38 33  1  0
 39 28  1  0
 41 40  1  0
 42 41  2  0
 43 42  1  0
 44 43  2  0
 44  1  1  0
 45 44  1  0
 46 41  1  0
 46 45  2  0
 47  9  1  0
 48 47  2  0
 49 48  1  0
 50 49  2  0
 51 50  1  0
 52 47  1  0
 52 51  2  0
 53 50  1  0
  1 54  1  0
  3 55  1  0
  3 56  1  0
  5 57  1  0
  5 58  1  0
  9 59  1  6
 10 60  1  0
 10 61  1  0
 11 62  1  6
 15 63  1  0
 18 64  1  0
 19 65  1  0
 20 66  1  0
 21 67  1  0
 22 68  1  0
 22 69  1  0
 22 70  1  0
 25 71  1  1
 26 72  1  0
 26 73  1  0
 27 74  1  0
 27 75  1  0
 28 76  1  6
 32 77  1  0
 35 78  1  0
 36 79  1  0
 37 80  1  0
 38 81  1  0
 39 82  1  0
 39 83  1  0
 39 84  1  0
 42 85  1  0
 43 86  1  0
 45 87  1  0
 46 88  1  0
 48 89  1  0
 49 90  1  0
 51 91  1  0
 52 92  1  0
M  CHG  2  11   1  28   1
M  END
>  <score>  (8) 
-8.133

$$$$
=
     RDKit          3D

 92100  0  0  0  0  0  0  0  0999 V2000
   -3.3360   60.8260   74.7500 C   0  0  0  0  0  0  0  0  0  0  0  0
   -2.3100   60.7230   75.6120 C   0  0  0  0  0  0  0  0  0  0  0  0
   -2.0690   59.6410   76.6200 C   0  0  0  0  0  0  0  0  0  0  0  0
   -0.6780   59.1350   76.5720 N   0  0  0  0  0  0  0  0  0  0  0  0
    0.2340   59.8180   75.6630 C   0  0  0  0  0  0  0  0  0  0  0  0
    0.1790   61.3620   75.7260 C   0  0  2  0  0  0  0  0  0  0  0  0
   -1.2670   61.7730   75.5320 C   0  0  0  0  0  0  0  0  0  0  0  0
   -1.5440   62.9570   75.3410 O   0  0  0  0  0  0  0  0  0  0  0  0
    1.0040   62.0580   74.5660 C   0  0  1  0  0  0  0  0  0  0  0  0
    1.7570   63.2370   75.2120 C   0  0  0  0  0  0  0  0  0  0  0  0
    1.0830   63.4550   76.5420 N   0  0  1  0  0  4  0  0  0  0  0  0
    0.6750   62.0510   77.0360 C   0  0  2  0  0  0  0  0  0  0  0  0
    1.8960   61.2440   77.6230 C   0  0  0  0  0  0  0  0  0  0  0  0
    2.9230   60.9620   77.0270 O   0  0  0  0  0  0  0  0  0  0  0  0
    1.6030   60.9000   78.9260 N   0  0  0  0  0  0  0  0  0  0  0  0
    0.3710   61.4010   79.3100 C   0  0  0  0  0  0  0  0  0  0  0  0
   -0.2220   62.1080   78.2590 C   0  0  0  0  0  0  0  0  0  0  0  0
   -1.4190   62.7750   78.4860 C   0  0  0  0  0  0  0  0  0  0  0  0
   -2.0210   62.6650   79.7450 C   0  0  0  0  0  0  0  0  0  0  0  0
   -1.4200   61.9170   80.7700 C   0  0  0  0  0  0  0  0  0  0  0  0
   -0.2000   61.2790   80.5600 C   0  0  0  0  0  0  0  0  0  0  0  0
    1.8730   64.3070   77.4880 C   0  0  0  0  0  0  0  0  0  0  0  0
   -0.5270   57.8880   77.1670 C   0  0  0  0  0  0  0  0  0  0  0  0
   -1.4010   57.4860   77.9430 O   0  0  0  0  0  0  0  0  0  0  0  0
    0.6090   56.9040   76.8860 C   0  0  2  0  0  0  0  0  0  0  0  0
    2.0580   57.3730   76.9450 C   0  0  0  0  0  0  0  0  0  0  0  0
    2.7500   56.8690   75.6880 C   0  0  0  0  0  0  0  0  0  0  0  0
    1.6540   56.4950   74.7440 N   0  0  2  0  0  4  0  0  0  0  0  0
    0.4440   56.0700   75.6040 C   0  0  2  0  0  0  0  0  0  0  0  0
   -0.8800   56.3050   74.7940 C   0  0  0  0  0  0  0  0  0  0  0  0
   -1.1440   57.3230   74.1720 O   0  0  0  0  0  0  0  0  0  0  0  0
   -1.6040   55.1310   74.8070 N   0  0  0  0  0  0  0  0  0  0  0  0
   -0.8960   54.1150   75.4320 C   0  0  0  0  0  0  0  0  0  0  0  0
    0.3340   54.5870   75.9020 C   0  0  0  0  0  0  0  0  0  0  0  0
    1.2030   53.7260   76.5570 C   0  0  0  0  0  0  0  0  0  0  0  0
    0.8170   52.3910   76.7120 C   0  0  0  0  0  0  0  0  0  0  0  0
   -0.4210   51.9340   76.2250 C   0  0  0  0  0  0  0  0  0  0  0  0
   -1.2970   52.8040   75.5750 C   0  0  0  0  0  0  0  0  0  0  0  0
    2.0650   55.5470   73.6550 C   0  0  0  0  0  0  0  0  0  0  0  0
   -7.4680   57.0780   74.5260 F   0  0  0  0  0  0  0  0  0  0  0  0
   -6.4760   57.9750   74.5660 C   0  0  0  0  0  0  0  0  0  0  0  0
   -6.6940   59.2600   74.0790 C   0  0  0  0  0  0  0  0  0  0  0  0
   -5.6610   60.1980   74.1270 C   0  0  0  0  0  0  0  0  0  0  0  0
   -4.4180   59.8450   74.6670 C   0  0  0  0  0  0  0  0  0  0  0  0
   -4.2130   58.5460   75.1510 C   0  0  0  0  0  0  0  0  0  0  0  0
   -5.2460   57.6090   75.0970 C   0  0  0  0  0  0  0  0  0  0  0  0
    1.8210   61.1360   73.6700 C   0  0  0  0  0  0  0  0  0  0  0  0
    3.2260   61.2760   73.6770 C   0  0  0  0  0  0  0  0  0  0  0  0
    4.0310   60.5270   72.8170 C   0  0  0  0  0  0  0  0  0  0  0  0
    3.4420   59.6190   71.9510 C   0  0  0  0  0  0  0  0  0  0  0  0
    2.0670   59.4350   71.9450 C   0  0  0  0  0  0  0  0  0  0  0  0
    1.2580   60.1890   72.8010 C   0  0  0  0  0  0  0  0  0  0  0  0
    4.2030   58.9400   71.0870 F   0  0  0  0  0  0  0  0  0  0  0  0
   -3.3635   61.6921   74.0724 H   0  0  0  0  0  0  0  0  0  0  0  0
   -2.2660   60.0422   77.6251 H   0  0  0  0  0  0  0  0  0  0  0  0
   -2.7425   58.8035   76.3856 H   0  0  0  0  0  0  0  0  0  0  0  0
    1.2593   59.5022   75.9061 H   0  0  0  0  0  0  0  0  0  0  0  0
   -0.0772   59.5389   74.6455 H   0  0  0  0  0  0  0  0  0  0  0  0
    0.3156   62.4393   73.7974 H   0  0  0  0  0  0  0  0  0  0  0  0
    2.8184   62.9854   75.3541 H   0  0  0  0  0  0  0  0  0  0  0  0
    1.7263   64.1387   74.5828 H   0  0  0  0  0  0  0  0  0  0  0  0
    0.2356   64.0347   76.4598 H   0  0  0  0  0  0  0  0  0  0  0  0
    2.2203   60.3430   79.5340 H   0  0  0  0  0  0  0  0  0  0  0  0
   -1.8846   63.3777   77.6923 H   0  0  0  0  0  0  0  0  0  0  0  0
   -2.9788   63.1719   79.9340 H   0  0  0  0  0  0  0  0  0  0  0  0
   -1.9172   61.8342   81.7477 H   0  0  0  0  0  0  0  0  0  0  0  0
    0.2886   60.7012   81.3584 H   0  0  0  0  0  0  0  0  0  0  0  0
    1.6211   64.0353   78.5237 H   0  0  0  0  0  0  0  0  0  0  0  0
    2.9475   64.1449   77.3174 H   0  0  0  0  0  0  0  0  0  0  0  0
    1.6303   65.3662   77.3174 H   0  0  0  0  0  0  0  0  0  0  0  0
    0.4601   56.2975   77.7916 H   0  0  0  0  0  0  0  0  0  0  0  0
    2.0965   58.4717   76.9807 H   0  0  0  0  0  0  0  0  0  0  0  0
    2.5560   56.9841   77.8454 H   0  0  0  0  0  0  0  0  0  0  0  0
    3.3776   57.6604   75.2524 H   0  0  0  0  0  0  0  0  0  0  0  0
    3.4093   56.0150   75.9027 H   0  0  0  0  0  0  0  0  0  0  0  0
    1.3777   57.3056   74.1718 H   0  0  0  0  0  0  0  0  0  0  0  0
   -2.5463   55.0230   74.4055 H   0  0  0  0  0  0  0  0  0  0  0  0
    2.1687   54.0837   76.9436 H   0  0  0  0  0  0  0  0  0  0  0  0
    1.4915   51.6877   77.2224 H   0  0  0  0  0  0  0  0  0  0  0  0
   -0.7017   50.8788   76.3581 H   0  0  0  0  0  0  0  0  0  0  0  0
   -2.2683   52.4577   75.1922 H   0  0  0  0  0  0  0  0  0  0  0  0
    2.4646   54.6252   74.1028 H   0  0  0  0  0  0  0  0  0  0  0  0
    1.1917   55.3033   73.0321 H   0  0  0  0  0  0  0  0  0  0  0  0
    2.8398   56.0178   73.0321 H   0  0  0  0  0  0  0  0  0  0  0  0
   -7.6729   59.5348   73.6593 H   0  0  0  0  0  0  0  0  0  0  0  0
   -5.8235   61.2149   73.7404 H   0  0  0  0  0  0  0  0  0  0  0  0
   -3.2373   58.2646   75.5738 H   0  0  0  0  0  0  0  0  0  0  0  0
   -5.0870   56.5874   75.4725 H   0  0  0  0  0  0  0  0  0  0  0  0
    3.6945   61.9879   74.3725 H   0  0  0  0  0  0  0  0  0  0  0  0
    5.1233   60.6562   72.8265 H   0  0  0  0  0  0  0  0  0  0  0  0
    1.6134   58.6966   71.2675 H   0  0  0  0  0  0  0  0  0  0  0  0
    0.1684   60.0380   72.7930 H   0  0  0  0  0  0  0  0  0  0  0  0
  2  1  2  0
  3  2  1  0
  4  3  1  0
  5  4  1  0
  6  5  1  1
  7  6  1  0
  7  2  1  0
  8  7  2  0
  9  6  1  0
 10  9  1  0
 11 10  1  0
 12 11  1  0
 12  6  1  0
 12 13  1  1
 14 13  2  0
 15 13  1  0
 16 15  1  0
 17 16  2  0
 17 12  1  0
 18 17  1  0
 19 18  2  0
 20 19  1  0
 21 20  2  0
 21 16  1  0
 22 11  1  0
 23  4  1  0
 24 23  2  0
 25 23  1  0
 26 25  1  0
 27 26  1  0
 28 27  1  0
 29 25  1  0
 29 28  1  0
 29 30  1  6
 31 30  2  0
 32 30  1  0
 33 32  1  0
 34 33  2  0
 34 29  1  0
 35 34  1  0
 36 35  2  0
 37 36  1  0
 38 37  2  0
 38 33  1  0
 39 28  1  0
 41 40  1  0
 42 41  2  0
 43 42  1  0
 44 43  2  0
 44  1  1  0
 45 44  1  0
 46 41  1  0
 46 45  2  0
 47  9  1  0
 48 47  2  0
 49 48  1  0
 50 49  2  0
 51 50  1  0
 52 47  1  0
 52 51  2  0
 53 50  1  0
  1 54  1  0
  3 55  1  0
  3 56  1  0
  5 57  1  0
  5 58  1  0
  9 59  1  6
 10 60  1  0
 10 61  1  0
 11 62  1  6
 15 63  1  0
 18 64  1  0
 19 65  1  0
 20 66  1  0
 21 67  1  0
 22 68  1  0
 22 69  1  0
 22 70  1  0
 25 71  1  1
 26 72  1  0
 26 73  1  0
 27 74  1  0
 27 75  1  0
 28 76  1  6
 32 77  1  0
 35 78  1  0
 36 79  1  0
 37 80  1  0
 38 81  1  0
 39 82  1  0
 39 83  1  0
 39 84  1  0
 42 85  1  0
 43 86  1  0
 45 87  1  0
 46 88  1  0
 48 89  1  0
 49 90  1  0
 51 91  1  0
 52 92  1  0
M  CHG  2  11   1  28   1
M  END
>  <score>  (9) 
-8.079

$$$$
