=
     RDKit          3D

 70 72  0  0  0  0  0  0  0  0999 V2000
    1.1230   66.6790   69.6840 C   0  0  2  0  0  0  0  0  0  0  0  0
   -0.2520   66.3010   69.4560 O   0  0  0  0  0  0  0  0  0  0  0  0
    1.7620   67.2060   68.3810 C   0  0  0  0  0  0  0  0  0  0  0  0
    0.9250   68.3080   67.8000 N   0  0  0  0  0  0  0  0  0  0  0  0
    0.0420   67.9630   66.3870 S   0  0  0  0  0  6  0  0  0  0  0  0
   -0.7500   69.1250   66.0460 O   0  0  0  0  0  0  0  0  0  0  0  0
   -0.5880   66.6760   66.6030 O   0  0  0  0  0  0  0  0  0  0  0  0
    1.2950   67.7720   65.1410 C   0  0  0  0  0  0  0  0  0  0  0  0
    2.1670   66.6840   65.1990 C   0  0  0  0  0  0  0  0  0  0  0  0
    3.1590   66.5430   64.2250 C   0  0  0  0  0  0  0  0  0  0  0  0
    3.3260   67.5110   63.2290 C   0  0  0  0  0  0  0  0  0  0  0  0
    2.4280   68.5810   63.1690 C   0  0  0  0  0  0  0  0  0  0  0  0
    1.4320   68.7340   64.1380 C   0  0  0  0  0  0  0  0  0  0  0  0
    4.2350   67.2980   62.1880 N   0  0  0  0  0  0  0  0  0  0  0  0
    1.5360   69.6620   67.8960 C   0  0  0  0  0  0  0  0  0  0  0  0
    3.8060   69.7280   66.8230 C   0  0  0  0  0  0  0  0  0  0  0  0
    3.0490   69.5580   68.1420 C   0  0  0  0  0  0  0  0  0  0  0  0
    3.5300   70.5960   69.1570 C   0  0  0  0  0  0  0  0  0  0  0  0
    1.8300   65.4190   70.2660 C   0  0  1  0  0  0  0  0  0  0  0  0
    0.9560   64.8260   71.2900 N   0  0  0  0  0  0  0  0  0  0  0  0
    0.0610   63.8340   71.0240 C   0  0  0  0  0  0  0  0  0  0  0  0
   -0.3310   63.4970   69.9190 O   0  0  0  0  0  0  0  0  0  0  0  0
   -0.3190   63.2650   72.1930 O   0  0  0  0  0  0  0  0  0  0  0  0
   -0.2980   61.8370   72.2020 C   0  0  1  0  0  0  0  0  0  0  0  0
    1.0950   61.3430   72.5200 C   0  0  0  0  0  0  0  0  0  0  0  0
    0.8200   59.9480   73.0320 C   0  0  0  0  0  0  0  0  0  0  0  0
   -0.4320   60.0090   73.7280 O   0  0  0  0  0  0  0  0  0  0  0  0
   -1.1040   61.2190   73.3360 C   0  0  0  0  0  0  0  0  0  0  0  0
    2.2800   64.3840   69.2080 C   0  0  0  0  0  0  0  0  0  0  0  0
    3.1640   63.2650   69.7080 C   0  0  0  0  0  0  0  0  0  0  0  0
    2.9160   61.9450   69.3040 C   0  0  0  0  0  0  0  0  0  0  0  0
    3.7100   60.8960   69.7730 C   0  0  0  0  0  0  0  0  0  0  0  0
    4.7550   61.1540   70.6560 C   0  0  0  0  0  0  0  0  0  0  0  0
    4.9980   62.4580   71.0820 C   0  0  0  0  0  0  0  0  0  0  0  0
    4.2020   63.5060   70.6190 C   0  0  0  0  0  0  0  0  0  0  0  0
    1.2190   67.5093   70.3991 H   0  0  0  0  0  0  0  0  0  0  0  0
   -0.7083   66.1756   70.3256 H   0  0  0  0  0  0  0  0  0  0  0  0
    2.7685   67.5917   68.6004 H   0  0  0  0  0  0  0  0  0  0  0  0
    1.8246   66.3826   67.6543 H   0  0  0  0  0  0  0  0  0  0  0  0
    2.0741   65.9424   66.0060 H   0  0  0  0  0  0  0  0  0  0  0  0
    3.8160   65.6609   64.2416 H   0  0  0  0  0  0  0  0  0  0  0  0
    2.5061   69.3109   62.3498 H   0  0  0  0  0  0  0  0  0  0  0  0
    0.7613   69.6055   64.1106 H   0  0  0  0  0  0  0  0  0  0  0  0
    4.3561   68.0123   61.4559 H   0  0  0  0  0  0  0  0  0  0  0  0
    4.7834   66.4268   62.1534 H   0  0  0  0  0  0  0  0  0  0  0  0
    1.3594   70.2055   66.9561 H   0  0  0  0  0  0  0  0  0  0  0  0
    1.0764   70.1988   68.7390 H   0  0  0  0  0  0  0  0  0  0  0  0
    4.8596   69.9646   67.0328 H   0  0  0  0  0  0  0  0  0  0  0  0
    3.7481   68.7945   66.2440 H   0  0  0  0  0  0  0  0  0  0  0  0
    3.3545   70.5471   66.2440 H   0  0  0  0  0  0  0  0  0  0  0  0
    3.2532   68.5607   68.5588 H   0  0  0  0  0  0  0  0  0  0  0  0
    3.3559   70.2204   70.1761 H   0  0  0  0  0  0  0  0  0  0  0  0
    4.6049   70.7795   69.0125 H   0  0  0  0  0  0  0  0  0  0  0  0
    2.9751   71.5347   69.0125 H   0  0  0  0  0  0  0  0  0  0  0  0
    2.7771   65.7483   70.7182 H   0  0  0  0  0  0  0  0  0  0  0  0
    1.0241   65.1781   72.2555 H   0  0  0  0  0  0  0  0  0  0  0  0
   -0.6911   61.5586   71.2131 H   0  0  0  0  0  0  0  0  0  0  0  0
    1.7274   61.3218   71.6202 H   0  0  0  0  0  0  0  0  0  0  0  0
    1.6410   61.9790   73.2324 H   0  0  0  0  0  0  0  0  0  0  0  0
    0.7536   59.2411   72.1918 H   0  0  0  0  0  0  0  0  0  0  0  0
    1.6268   59.6013   73.6945 H   0  0  0  0  0  0  0  0  0  0  0  0
   -2.1231   60.9891   72.9918 H   0  0  0  0  0  0  0  0  0  0  0  0
   -1.1797   61.9150   74.1845 H   0  0  0  0  0  0  0  0  0  0  0  0
    1.3760   63.9306   68.7753 H   0  0  0  0  0  0  0  0  0  0  0  0
    2.8924   64.9452   68.4869 H   0  0  0  0  0  0  0  0  0  0  0  0
    2.0882   61.7339   68.6111 H   0  0  0  0  0  0  0  0  0  0  0  0
    3.5096   59.8655   69.4445 H   0  0  0  0  0  0  0  0  0  0  0  0
    5.3877   60.3297   71.0167 H   0  0  0  0  0  0  0  0  0  0  0  0
    5.8192   62.6617   71.7849 H   0  0  0  0  0  0  0  0  0  0  0  0
    4.3905   64.5307   70.9719 H   0  0  0  0  0  0  0  0  0  0  0  0
  2  1  1  0
  3  1  1  0
  4  3  1  0
  5  4  1  0
  6  5  2  0
  7  5  2  0
  8  5  1  0
  9  8  2  0
 10  9  1  0
 11 10  2  0
 12 11  1  0
 13 12  2  0
 13  8  1  0
 14 11  1  0
 15  4  1  0
 17 16  1  0
 17 15  1  0
 18 17  1  0
 19  1  1  0
 20 19  1  0
 21 20  1  0
 22 21  2  0
 23 21  1  0
 24 23  1  0
 25 24  1  0
 26 25  1  0
 27 26  1  0
 28 27  1  0
 28 24  1  0
 29 19  1  0
 30 29  1  0
 31 30  2  0
 32 31  1  0
 33 32  2  0
 34 33  1  0
 35 30  1  0
 35 34  2  0
  1 36  1  1
  2 37  1  0
  3 38  1  0
  3 39  1  0
  9 40  1  0
 10 41  1  0
 12 42  1  0
 13 43  1  0
 14 44  1  0
 14 45  1  0
 15 46  1  0
 15 47  1  0
 16 48  1  0
 16 49  1  0
 16 50  1  0
 17 51  1  0
 18 52  1  0
 18 53  1  0
 18 54  1  0
 19 55  1  1
 20 56  1  0
 24 57  1  6
 25 58  1  0
 25 59  1  0
 26 60  1  0
 26 61  1  0
 28 62  1  0
 28 63  1  0
 29 64  1  0
 29 65  1  0
 31 66  1  0
 32 67  1  0
 33 68  1  0
 34 69  1  0
 35 70  1  0
M  END
>  <score>  (1) 
-9.098

$$$$
=
     RDKit          3D

 70 72  0  0  0  0  0  0  0  0999 V2000
    1.0310   66.5500   68.6300 C   0  0  2  0  0  0  0  0  0  0  0  0
   -0.2170   67.2000   68.9570 O   0  0  0  0  0  0  0  0  0  0  0  0
    1.8470   66.2720   69.9110 C   0  0  0  0  0  0  0  0  0  0  0  0
    1.7540   64.8200   70.2820 N   0  0  0  0  0  0  0  0  0  0  0  0
    0.2920   64.2750   70.9620 S   0  0  0  0  0  6  0  0  0  0  0  0
   -0.4510   63.5660   69.9420 O   0  0  0  0  0  0  0  0  0  0  0  0
   -0.2900   65.4120   71.6460 O   0  0  0  0  0  0  0  0  0  0  0  0
    0.8080   63.0910   72.1820 C   0  0  0  0  0  0  0  0  0  0  0  0
    0.9290   61.7450   71.8320 C   0  0  0  0  0  0  0  0  0  0  0  0
    1.3230   60.8140   72.7960 C   0  0  0  0  0  0  0  0  0  0  0  0
    1.5390   61.2050   74.1210 C   0  0  0  0  0  0  0  0  0  0  0  0
    1.4400   62.5600   74.4510 C   0  0  0  0  0  0  0  0  0  0  0  0
    1.0450   63.5010   73.4960 C   0  0  0  0  0  0  0  0  0  0  0  0
    2.0550   60.2930   75.0480 N   0  0  0  0  0  0  0  0  0  0  0  0
    3.0090   64.2450   70.8380 C   0  0  0  0  0  0  0  0  0  0  0  0
    4.8030   62.5360   70.4250 C   0  0  0  0  0  0  0  0  0  0  0  0
    3.7570   63.4380   69.7660 C   0  0  0  0  0  0  0  0  0  0  0  0
    2.7990   62.5960   68.9210 C   0  0  0  0  0  0  0  0  0  0  0  0
    1.7540   67.4820   67.6140 C   0  0  1  0  0  0  0  0  0  0  0  0
    1.1210   67.3140   66.2960 N   0  0  0  0  0  0  0  0  0  0  0  0
    0.1540   68.1450   65.8200 C   0  0  0  0  0  0  0  0  0  0  0  0
   -0.4980   68.9400   66.4780 O   0  0  0  0  0  0  0  0  0  0  0  0
    0.0370   67.9590   64.4840 O   0  0  0  0  0  0  0  0  0  0  0  0
    0.8620   68.8060   63.6830 C   0  0  1  0  0  0  0  0  0  0  0  0
    2.0820   68.0470   63.2150 C   0  0  0  0  0  0  0  0  0  0  0  0
    2.4980   68.8440   62.0020 C   0  0  0  0  0  0  0  0  0  0  0  0
    1.2890   69.3200   61.3940 O   0  0  0  0  0  0  0  0  0  0  0  0
    0.2280   69.2050   62.3580 C   0  0  0  0  0  0  0  0  0  0  0  0
    1.8310   68.9670   68.0420 C   0  0  0  0  0  0  0  0  0  0  0  0
    3.1920   69.6170   67.9370 C   0  0  0  0  0  0  0  0  0  0  0  0
    3.9570   69.4540   66.7730 C   0  0  0  0  0  0  0  0  0  0  0  0
    5.2240   70.0300   66.6680 C   0  0  0  0  0  0  0  0  0  0  0  0
    5.7450   70.7690   67.7270 C   0  0  0  0  0  0  0  0  0  0  0  0
    5.0040   70.9210   68.8970 C   0  0  0  0  0  0  0  0  0  0  0  0
    3.7390   70.3400   69.0060 C   0  0  0  0  0  0  0  0  0  0  0  0
    0.8842   65.5613   68.1708 H   0  0  0  0  0  0  0  0  0  0  0  0
   -0.3147   67.2509   69.9409 H   0  0  0  0  0  0  0  0  0  0  0  0
    2.9005   66.5349   69.7346 H   0  0  0  0  0  0  0  0  0  0  0  0
    1.4404   66.8787   70.7335 H   0  0  0  0  0  0  0  0  0  0  0  0
    0.7154   61.4195   70.8032 H   0  0  0  0  0  0  0  0  0  0  0  0
    1.4649   59.7615   72.5095 H   0  0  0  0  0  0  0  0  0  0  0  0
    1.6756   62.8892   75.4738 H   0  0  0  0  0  0  0  0  0  0  0  0
    0.9216   64.5572   73.7773 H   0  0  0  0  0  0  0  0  0  0  0  0
    2.2131   60.5838   76.0234 H   0  0  0  0  0  0  0  0  0  0  0  0
    2.2768   59.3308   74.7551 H   0  0  0  0  0  0  0  0  0  0  0  0
    3.6551   65.0620   71.1915 H   0  0  0  0  0  0  0  0  0  0  0  0
    2.7524   63.5743   71.6712 H   0  0  0  0  0  0  0  0  0  0  0  0
    4.7154   62.6115   71.5189 H   0  0  0  0  0  0  0  0  0  0  0  0
    4.6362   61.4939   70.1149 H   0  0  0  0  0  0  0  0  0  0  0  0
    5.8093   62.8542   70.1149 H   0  0  0  0  0  0  0  0  0  0  0  0
    4.2568   64.1528   69.0957 H   0  0  0  0  0  0  0  0  0  0  0  0
    2.1392   62.0161   69.5831 H   0  0  0  0  0  0  0  0  0  0  0  0
    2.1916   63.2579   68.2862 H   0  0  0  0  0  0  0  0  0  0  0  0
    3.3774   61.9087   68.2862 H   0  0  0  0  0  0  0  0  0  0  0  0
    2.8091   67.1737   67.5719 H   0  0  0  0  0  0  0  0  0  0  0  0
    1.4252   66.5279   65.7040 H   0  0  0  0  0  0  0  0  0  0  0  0
    1.0568   69.6749   64.3288 H   0  0  0  0  0  0  0  0  0  0  0  0
    2.8705   68.0448   63.9820 H   0  0  0  0  0  0  0  0  0  0  0  0
    1.8908   66.9844   63.0046 H   0  0  0  0  0  0  0  0  0  0  0  0
    3.1314   69.6915   62.3029 H   0  0  0  0  0  0  0  0  0  0  0  0
    3.0801   68.2276   61.3011 H   0  0  0  0  0  0  0  0  0  0  0  0
   -0.2905   70.1693   62.4640 H   0  0  0  0  0  0  0  0  0  0  0  0
   -0.5098   68.4547   62.0376 H   0  0  0  0  0  0  0  0  0  0  0  0
    1.1361   69.5366   67.4075 H   0  0  0  0  0  0  0  0  0  0  0  0
    1.5774   68.9808   69.1123 H   0  0  0  0  0  0  0  0  0  0  0  0
    3.5546   68.8665   65.9346 H   0  0  0  0  0  0  0  0  0  0  0  0
    5.8118   69.9000   65.7474 H   0  0  0  0  0  0  0  0  0  0  0  0
    6.7392   71.2316   67.6400 H   0  0  0  0  0  0  0  0  0  0  0  0
    5.4163   71.4999   69.7366 H   0  0  0  0  0  0  0  0  0  0  0  0
    3.1667   70.4506   69.9389 H   0  0  0  0  0  0  0  0  0  0  0  0
  2  1  1  0
  3  1  1  0
  4  3  1  0
  5  4  1  0
  6  5  2  0
  7  5  2  0
  8  5  1  0
  9  8  2  0
 10  9  1  0
 11 10  2  0
 12 11  1  0
 13 12  2  0
 13  8  1  0
 14 11  1  0
 15  4  1  0
 17 16  1  0
 17 15  1  0
 18 17  1  0
 19  1  1  0
 20 19  1  0
 21 20  1  0
 22 21  2  0
 23 21  1  0
 24 23  1  0
 25 24  1  0
 26 25  1  0
 27 26  1  0
 28 27  1  0
 28 24  1  0
 29 19  1  0
 30 29  1  0
 31 30  2  0
 32 31  1  0
 33 32  2  0
 34 33  1  0
 35 30  1  0
 35 34  2  0
  1 36  1  6
  2 37  1  0
  3 38  1  0
  3 39  1  0
  9 40  1  0
 10 41  1  0
 12 42  1  0
 13 43  1  0
 14 44  1  0
 14 45  1  0
 15 46  1  0
 15 47  1  0
 16 48  1  0
 16 49  1  0
 16 50  1  0
 17 51  1  0
 18 52  1  0
 18 53  1  0
 18 54  1  0
 19 55  1  6
 20 56  1  0
 24 57  1  1
 25 58  1  0
 25 59  1  0
 26 60  1  0
 26 61  1  0
 28 62  1  0
 28 63  1  0
 29 64  1  0
 29 65  1  0
 31 66  1  0
 32 67  1  0
 33 68  1  0
 34 69  1  0
 35 70  1  0
M  END
>  <score>  (2) 
-8.858

$$$$
=
     RDKit          3D

 70 72  0  0  0  0  0  0  0  0999 V2000
    1.5390   66.4670   69.0520 C   0  0  2  0  0  0  0  0  0  0  0  0
    1.2440   67.5870   69.9150 O   0  0  0  0  0  0  0  0  0  0  0  0
    0.7200   66.5620   67.7460 C   0  0  0  0  0  0  0  0  0  0  0  0
    1.5380   67.2100   66.6660 N   0  0  0  0  0  0  0  0  0  0  0  0
    1.4450   68.9030   66.5200 S   0  0  0  0  0  6  0  0  0  0  0  0
    0.4860   69.3940   67.4860 O   0  0  0  0  0  0  0  0  0  0  0  0
    1.2850   69.1840   65.1080 O   0  0  0  0  0  0  0  0  0  0  0  0
    3.0570   69.4600   67.0230 C   0  0  0  0  0  0  0  0  0  0  0  0
    3.2460   69.9520   68.3150 C   0  0  0  0  0  0  0  0  0  0  0  0
    4.5120   70.4000   68.7030 C   0  0  0  0  0  0  0  0  0  0  0  0
    5.5750   70.4170   67.7950 C   0  0  0  0  0  0  0  0  0  0  0  0
    5.3760   69.8960   66.5130 C   0  0  0  0  0  0  0  0  0  0  0  0
    4.1150   69.4450   66.1110 C   0  0  0  0  0  0  0  0  0  0  0  0
    6.8630   70.7460   68.2270 N   0  0  0  0  0  0  0  0  0  0  0  0
    1.6160   66.4300   65.4000 C   0  0  0  0  0  0  0  0  0  0  0  0
    3.2880   64.6280   64.8850 C   0  0  0  0  0  0  0  0  0  0  0  0
    3.0790   66.1370   65.0340 C   0  0  0  0  0  0  0  0  0  0  0  0
    3.4940   66.8510   63.7470 C   0  0  0  0  0  0  0  0  0  0  0  0
    1.2450   65.1850   69.8850 C   0  0  1  0  0  0  0  0  0  0  0  0
    2.5280   64.5700   70.2610 N   0  0  0  0  0  0  0  0  0  0  0  0
    2.9760   63.3970   69.7360 C   0  0  0  0  0  0  0  0  0  0  0  0
    2.3070   62.5810   69.1230 O   0  0  0  0  0  0  0  0  0  0  0  0
    4.3010   63.2820   69.9920 O   0  0  0  0  0  0  0  0  0  0  0  0
    4.6330   62.3990   71.0630 C   0  0  1  0  0  0  0  0  0  0  0  0
    3.4410   62.2200   71.9750 C   0  0  0  0  0  0  0  0  0  0  0  0
    3.7600   60.9080   72.6510 C   0  0  0  0  0  0  0  0  0  0  0  0
    4.4380   60.1020   71.6770 O   0  0  0  0  0  0  0  0  0  0  0  0
    4.8920   60.9650   70.6200 C   0  0  0  0  0  0  0  0  0  0  0  0
    0.3210   65.4060   71.1070 C   0  0  0  0  0  0  0  0  0  0  0  0
    0.1750   64.2340   72.0490 C   0  0  0  0  0  0  0  0  0  0  0  0
   -0.2490   62.9910   71.5580 C   0  0  0  0  0  0  0  0  0  0  0  0
   -0.4090   61.9020   72.4180 C   0  0  0  0  0  0  0  0  0  0  0  0
   -0.1560   62.0470   73.7800 C   0  0  0  0  0  0  0  0  0  0  0  0
    0.2440   63.2820   74.2840 C   0  0  0  0  0  0  0  0  0  0  0  0
    0.3990   64.3720   73.4260 C   0  0  0  0  0  0  0  0  0  0  0  0
    2.5893   66.4517   68.7256 H   0  0  0  0  0  0  0  0  0  0  0  0
    1.3186   67.3036   70.8606 H   0  0  0  0  0  0  0  0  0  0  0  0
    0.4301   65.5507   67.4247 H   0  0  0  0  0  0  0  0  0  0  0  0
   -0.1781   67.1701   67.9293 H   0  0  0  0  0  0  0  0  0  0  0  0
    2.4049   69.9871   69.0230 H   0  0  0  0  0  0  0  0  0  0  0  0
    4.6739   70.7434   69.7354 H   0  0  0  0  0  0  0  0  0  0  0  0
    6.2218   69.8402   65.8120 H   0  0  0  0  0  0  0  0  0  0  0  0
    3.9574   69.0813   65.0849 H   0  0  0  0  0  0  0  0  0  0  0  0
    7.6441   70.7577   67.5557 H   0  0  0  0  0  0  0  0  0  0  0  0
    7.0310   70.9768   69.2167 H   0  0  0  0  0  0  0  0  0  0  0  0
    1.0780   65.4791   65.5277 H   0  0  0  0  0  0  0  0  0  0  0  0
    1.1598   67.0201   64.5915 H   0  0  0  0  0  0  0  0  0  0  0  0
    3.3519   64.1665   65.8815 H   0  0  0  0  0  0  0  0  0  0  0  0
    2.4415   64.1933   64.3332 H   0  0  0  0  0  0  0  0  0  0  0  0
    4.2208   64.4397   64.3332 H   0  0  0  0  0  0  0  0  0  0  0  0
    3.7119   66.5186   65.8487 H   0  0  0  0  0  0  0  0  0  0  0  0
    4.0321   67.7768   63.9985 H   0  0  0  0  0  0  0  0  0  0  0  0
    4.1507   66.1936   63.1584 H   0  0  0  0  0  0  0  0  0  0  0  0
    2.5977   67.0962   63.1584 H   0  0  0  0  0  0  0  0  0  0  0  0
    0.6658   64.5002   69.2481 H   0  0  0  0  0  0  0  0  0  0  0  0
    3.1163   65.0513   70.9561 H   0  0  0  0  0  0  0  0  0  0  0  0
    5.5213   62.8595   71.5200 H   0  0  0  0  0  0  0  0  0  0  0  0
    3.3695   63.0394   72.7054 H   0  0  0  0  0  0  0  0  0  0  0  0
    2.4746   62.2257   71.4496 H   0  0  0  0  0  0  0  0  0  0  0  0
    4.4095   61.0776   73.5224 H   0  0  0  0  0  0  0  0  0  0  0  0
    2.8457   60.4129   73.0100 H   0  0  0  0  0  0  0  0  0  0  0  0
    5.9675   60.8133   70.4460 H   0  0  0  0  0  0  0  0  0  0  0  0
    4.3604   60.7451   69.6824 H   0  0  0  0  0  0  0  0  0  0  0  0
    0.7223   66.2527   71.6833 H   0  0  0  0  0  0  0  0  0  0  0  0
   -0.6828   65.5787   70.6916 H   0  0  0  0  0  0  0  0  0  0  0  0
   -0.4578   62.8722   70.4845 H   0  0  0  0  0  0  0  0  0  0  0  0
   -0.7348   60.9298   72.0196 H   0  0  0  0  0  0  0  0  0  0  0  0
   -0.2720   61.1874   74.4564 H   0  0  0  0  0  0  0  0  0  0  0  0
    0.4382   63.3988   75.3604 H   0  0  0  0  0  0  0  0  0  0  0  0
    0.6997   65.3483   73.8340 H   0  0  0  0  0  0  0  0  0  0  0  0
  2  1  1  0
  3  1  1  0
  4  3  1  0
  5  4  1  0
  6  5  2  0
  7  5  2  0
  8  5  1  0
  9  8  2  0
 10  9  1  0
 11 10  2  0
 12 11  1  0
 13 12  2  0
 13  8  1  0
 14 11  1  0
 15  4  1  0
 17 16  1  0
 17 15  1  0
 18 17  1  0
 19  1  1  0
 20 19  1  0
 21 20  1  0
 22 21  2  0
 23 21  1  0
 24 23  1  0
 25 24  1  0
 26 25  1  0
 27 26  1  0
 28 27  1  0
 28 24  1  0
 29 19  1  0
 30 29  1  0
 31 30  2  0
 32 31  1  0
 33 32  2  0
 34 33  1  0
 35 30  1  0
 35 34  2  0
  1 36  1  6
  2 37  1  0
  3 38  1  0
  3 39  1  0
  9 40  1  0
 10 41  1  0
 12 42  1  0
 13 43  1  0
 14 44  1  0
 14 45  1  0
 15 46  1  0
 15 47  1  0
 16 48  1  0
 16 49  1  0
 16 50  1  0
 17 51  1  0
 18 52  1  0
 18 53  1  0
 18 54  1  0
 19 55  1  6
 20 56  1  0
 24 57  1  1
 25 58  1  0
 25 59  1  0
 26 60  1  0
 26 61  1  0
 28 62  1  0
 28 63  1  0
 29 64  1  0
 29 65  1  0
 31 66  1  0
 32 67  1  0
 33 68  1  0
 34 69  1  0
 35 70  1  0
M  END
>  <score>  (3) 
-8.773

$$$$
=
     RDKit          3D

 70 72  0  0  0  0  0  0  0  0999 V2000
    0.3360   66.7510   69.7210 C   0  0  2  0  0  0  0  0  0  0  0  0
   -1.0410   66.7930   69.2860 O   0  0  0  0  0  0  0  0  0  0  0  0
    1.2790   67.1710   68.5730 C   0  0  0  0  0  0  0  0  0  0  0  0
    0.6580   68.2760   67.7690 N   0  0  0  0  0  0  0  0  0  0  0  0
   -0.0910   67.8540   66.3000 S   0  0  0  0  0  6  0  0  0  0  0  0
   -0.9000   68.9700   65.8610 O   0  0  0  0  0  0  0  0  0  0  0  0
   -0.6800   66.5460   66.5030 O   0  0  0  0  0  0  0  0  0  0  0  0
    1.2670   67.6870   65.1650 C   0  0  0  0  0  0  0  0  0  0  0  0
    2.1210   66.5870   65.2660 C   0  0  0  0  0  0  0  0  0  0  0  0
    3.1950   66.4650   64.3810 C   0  0  0  0  0  0  0  0  0  0  0  0
    3.4590   67.4600   63.4350 C   0  0  0  0  0  0  0  0  0  0  0  0
    2.5790   68.5420   63.3290 C   0  0  0  0  0  0  0  0  0  0  0  0
    1.5020   68.6770   64.2090 C   0  0  0  0  0  0  0  0  0  0  0  0
    4.4560   67.2690   62.4730 N   0  0  0  0  0  0  0  0  0  0  0  0
    1.4180   69.5560   67.7910 C   0  0  0  0  0  0  0  0  0  0  0  0
    3.7630   69.5150   66.8930 C   0  0  0  0  0  0  0  0  0  0  0  0
    2.8940   69.3050   68.1350 C   0  0  0  0  0  0  0  0  0  0  0  0
    3.3740   70.2140   69.2670 C   0  0  0  0  0  0  0  0  0  0  0  0
    0.5840   65.3050   70.2420 C   0  0  1  0  0  0  0  0  0  0  0  0
    1.9530   64.9060   69.8760 N   0  0  0  0  0  0  0  0  0  0  0  0
    2.2710   63.6630   69.4190 C   0  0  0  0  0  0  0  0  0  0  0  0
    1.5730   62.6660   69.5020 O   0  0  0  0  0  0  0  0  0  0  0  0
    3.4940   63.7120   68.8400 O   0  0  0  0  0  0  0  0  0  0  0  0
    4.4670   62.8390   69.4140 C   0  0  1  0  0  0  0  0  0  0  0  0
    4.6090   63.1210   70.8920 C   0  0  0  0  0  0  0  0  0  0  0  0
    5.1870   61.8230   71.4030 C   0  0  0  0  0  0  0  0  0  0  0  0
    4.6090   60.7790   70.6080 O   0  0  0  0  0  0  0  0  0  0  0  0
    4.0480   61.3750   69.4250 C   0  0  0  0  0  0  0  0  0  0  0  0
    0.2990   65.1040   71.7500 C   0  0  0  0  0  0  0  0  0  0  0  0
    0.5120   63.7060   72.2850 C   0  0  0  0  0  0  0  0  0  0  0  0
   -0.4440   62.7100   72.0360 C   0  0  0  0  0  0  0  0  0  0  0  0
   -0.2730   61.4190   72.5400 C   0  0  0  0  0  0  0  0  0  0  0  0
    0.8490   61.1110   73.3050 C   0  0  0  0  0  0  0  0  0  0  0  0
    1.7940   62.0970   73.5780 C   0  0  0  0  0  0  0  0  0  0  0  0
    1.6220   63.3900   73.0790 C   0  0  0  0  0  0  0  0  0  0  0  0
    0.5446   67.4663   70.5302 H   0  0  0  0  0  0  0  0  0  0  0  0
   -1.6364   66.8112   70.0767 H   0  0  0  0  0  0  0  0  0  0  0  0
    2.2324   67.5209   68.9957 H   0  0  0  0  0  0  0  0  0  0  0  0
    1.4537   66.3051   67.9175 H   0  0  0  0  0  0  0  0  0  0  0  0
    1.9493   65.8216   66.0372 H   0  0  0  0  0  0  0  0  0  0  0  0
    3.8405   65.5756   64.4290 H   0  0  0  0  0  0  0  0  0  0  0  0
    2.7366   69.2957   62.5435 H   0  0  0  0  0  0  0  0  0  0  0  0
    0.8443   69.5567   64.1490 H   0  0  0  0  0  0  0  0  0  0  0  0
    4.6481   68.0040   61.7774 H   0  0  0  0  0  0  0  0  0  0  0  0
    4.9982   66.3934   62.4601 H   0  0  0  0  0  0  0  0  0  0  0  0
    1.3537   70.0312   66.8010 H   0  0  0  0  0  0  0  0  0  0  0  0
    0.9826   70.2128   68.5585 H   0  0  0  0  0  0  0  0  0  0  0  0
    4.7894   69.7630   67.2013 H   0  0  0  0  0  0  0  0  0  0  0  0
    3.7731   68.5934   66.2925 H   0  0  0  0  0  0  0  0  0  0  0  0
    3.3512   70.3395   66.2925 H   0  0  0  0  0  0  0  0  0  0  0  0
    2.9859   68.2640   68.4783 H   0  0  0  0  0  0  0  0  0  0  0  0
    3.1306   69.7530   70.2356 H   0  0  0  0  0  0  0  0  0  0  0  0
    4.4626   70.3521   69.1898 H   0  0  0  0  0  0  0  0  0  0  0  0
    2.8741   71.1908   69.1898 H   0  0  0  0  0  0  0  0  0  0  0  0
   -0.1486   64.6456   69.7536 H   0  0  0  0  0  0  0  0  0  0  0  0
    2.7074   65.6010   69.9702 H   0  0  0  0  0  0  0  0  0  0  0  0
    5.3673   63.0094   68.8054 H   0  0  0  0  0  0  0  0  0  0  0  0
    5.2930   63.9629   71.0747 H   0  0  0  0  0  0  0  0  0  0  0  0
    3.6676   63.4113   71.3814 H   0  0  0  0  0  0  0  0  0  0  0  0
    6.2813   61.8242   71.2912 H   0  0  0  0  0  0  0  0  0  0  0  0
    4.9627   61.6806   72.4704 H   0  0  0  0  0  0  0  0  0  0  0  0
    4.4326   60.8665   68.5286 H   0  0  0  0  0  0  0  0  0  0  0  0
    2.9518   61.2834   69.4248 H   0  0  0  0  0  0  0  0  0  0  0  0
    0.9587   65.7828   72.3104 H   0  0  0  0  0  0  0  0  0  0  0  0
   -0.7738   65.3101   71.8787 H   0  0  0  0  0  0  0  0  0  0  0  0
   -1.3363   62.9481   71.4384 H   0  0  0  0  0  0  0  0  0  0  0  0
   -1.0257   60.6442   72.3324 H   0  0  0  0  0  0  0  0  0  0  0  0
    0.9887   60.0912   73.6929 H   0  0  0  0  0  0  0  0  0  0  0  0
    2.6775   61.8569   74.1878 H   0  0  0  0  0  0  0  0  0  0  0  0
    2.3648   64.1673   73.3115 H   0  0  0  0  0  0  0  0  0  0  0  0
  2  1  1  0
  3  1  1  0
  4  3  1  0
  5  4  1  0
  6  5  2  0
  7  5  2  0
  8  5  1  0
  9  8  2  0
 10  9  1  0
 11 10  2  0
 12 11  1  0
 13 12  2  0
 13  8  1  0
 14 11  1  0
 15  4  1  0
 17 16  1  0
 17 15  1  0
 18 17  1  0
 19  1  1  0
 20 19  1  0
 21 20  1  0
 22 21  2  0
 23 21  1  0
 24 23  1  0
 25 24  1  0
 26 25  1  0
 27 26  1  0
 28 27  1  0
 28 24  1  0
 29 19  1  0
 30 29  1  0
 31 30  2  0
 32 31  1  0
 33 32  2  0
 34 33  1  0
 35 30  1  0
 35 34  2  0
  1 36  1  1
  2 37  1  0
  3 38  1  0
  3 39  1  0
  9 40  1  0
 10 41  1  0
 12 42  1  0
 13 43  1  0
 14 44  1  0
 14 45  1  0
 15 46  1  0
 15 47  1  0
 16 48  1  0
 16 49  1  0
 16 50  1  0
 17 51  1  0
 18 52  1  0
 18 53  1  0
 18 54  1  0
 19 55  1  6
 20 56  1  0
 24 57  1  6
 25 58  1  0
 25 59  1  0
 26 60  1  0
 26 61  1  0
 28 62  1  0
 28 63  1  0
 29 64  1  0
 29 65  1  0
 31 66  1  0
 32 67  1  0
 33 68  1  0
 34 69  1  0
 35 70  1  0
M  END
>  <score>  (4) 
-8.54

$$$$
=
     RDKit          3D

 70 72  0  0  0  0  0  0  0  0999 V2000
    1.6270   66.5590   69.3900 C   0  0  2  0  0  0  0  0  0  0  0  0
    0.7600   67.2140   70.3430 O   0  0  0  0  0  0  0  0  0  0  0  0
    0.8790   66.3100   68.0630 C   0  0  0  0  0  0  0  0  0  0  0  0
    1.4980   67.1150   66.9570 N   0  0  0  0  0  0  0  0  0  0  0  0
    1.1860   68.7880   66.9340 S   0  0  0  0  0  6  0  0  0  0  0  0
    0.2370   69.0910   67.9840 O   0  0  0  0  0  0  0  0  0  0  0  0
    0.9000   69.1320   65.5560 O   0  0  0  0  0  0  0  0  0  0  0  0
    2.7450   69.5160   67.3820 C   0  0  0  0  0  0  0  0  0  0  0  0
    3.7960   69.5170   66.4640 C   0  0  0  0  0  0  0  0  0  0  0  0
    5.0240   70.0780   66.8230 C   0  0  0  0  0  0  0  0  0  0  0  0
    5.2300   70.5850   68.1100 C   0  0  0  0  0  0  0  0  0  0  0  0
    4.1590   70.6000   69.0090 C   0  0  0  0  0  0  0  0  0  0  0  0
    2.9260   70.0410   68.6630 C   0  0  0  0  0  0  0  0  0  0  0  0
    6.4160   71.2580   68.4190 N   0  0  0  0  0  0  0  0  0  0  0  0
    1.5440   66.4220   65.6410 C   0  0  0  0  0  0  0  0  0  0  0  0
    3.3080   64.7970   64.8950 C   0  0  0  0  0  0  0  0  0  0  0  0
    2.9950   66.2710   65.1570 C   0  0  0  0  0  0  0  0  0  0  0  0
    3.2570   67.0930   63.8940 C   0  0  0  0  0  0  0  0  0  0  0  0
    2.1320   65.2590   70.0820 C   0  0  1  0  0  0  0  0  0  0  0  0
    1.1790   64.8950   71.1430 N   0  0  0  0  0  0  0  0  0  0  0  0
    0.1820   63.9840   70.9710 C   0  0  0  0  0  0  0  0  0  0  0  0
   -0.2290   63.5600   69.9030 O   0  0  0  0  0  0  0  0  0  0  0  0
   -0.2790   63.6080   72.1880 O   0  0  0  0  0  0  0  0  0  0  0  0
   -0.3930   62.1970   72.3780 C   0  0  1  0  0  0  0  0  0  0  0  0
    0.9420   61.5320   72.1280 C   0  0  0  0  0  0  0  0  0  0  0  0
    0.7910   60.2360   72.8900 C   0  0  0  0  0  0  0  0  0  0  0  0
   -0.0090   60.5320   74.0430 O   0  0  0  0  0  0  0  0  0  0  0  0
   -0.6660   61.7920   73.8200 C   0  0  0  0  0  0  0  0  0  0  0  0
    2.4120   64.0820   69.1170 C   0  0  0  0  0  0  0  0  0  0  0  0
    3.2970   62.9800   69.6540 C   0  0  0  0  0  0  0  0  0  0  0  0
    4.2800   63.2760   70.6090 C   0  0  0  0  0  0  0  0  0  0  0  0
    5.1200   62.2750   71.1000 C   0  0  0  0  0  0  0  0  0  0  0  0
    4.9910   60.9680   70.6370 C   0  0  0  0  0  0  0  0  0  0  0  0
    4.0330   60.6640   69.6730 C   0  0  0  0  0  0  0  0  0  0  0  0
    3.1970   61.6660   69.1760 C   0  0  0  0  0  0  0  0  0  0  0  0
    2.4929   67.1777   69.1119 H   0  0  0  0  0  0  0  0  0  0  0  0
    1.0531   66.9926   71.2623 H   0  0  0  0  0  0  0  0  0  0  0  0
    0.9358   65.2411   67.8095 H   0  0  0  0  0  0  0  0  0  0  0  0
   -0.1715   66.6137   68.1819 H   0  0  0  0  0  0  0  0  0  0  0  0
    3.6585   69.0790   65.4644 H   0  0  0  0  0  0  0  0  0  0  0  0
    5.8384   70.1215   66.0848 H   0  0  0  0  0  0  0  0  0  0  0  0
    4.2888   71.0575   70.0009 H   0  0  0  0  0  0  0  0  0  0  0  0
    2.1045   70.0148   69.3941 H   0  0  0  0  0  0  0  0  0  0  0  0
    6.5647   71.6302   69.3678 H   0  0  0  0  0  0  0  0  0  0  0  0
    7.1410   71.3815   67.6978 H   0  0  0  0  0  0  0  0  0  0  0  0
    1.0914   65.4245   65.7421 H   0  0  0  0  0  0  0  0  0  0  0  0
    0.9866   67.0213   64.9060 H   0  0  0  0  0  0  0  0  0  0  0  0
    3.4199   64.2699   65.8540 H   0  0  0  0  0  0  0  0  0  0  0  0
    2.4860   64.3440   64.3213 H   0  0  0  0  0  0  0  0  0  0  0  0
    4.2431   64.7171   64.3213 H   0  0  0  0  0  0  0  0  0  0  0  0
    3.6553   66.6523   65.9499 H   0  0  0  0  0  0  0  0  0  0  0  0
    3.5799   68.1060   64.1762 H   0  0  0  0  0  0  0  0  0  0  0  0
    4.0455   66.6093   63.2987 H   0  0  0  0  0  0  0  0  0  0  0  0
    2.3340   67.1548   63.2987 H   0  0  0  0  0  0  0  0  0  0  0  0
    3.1196   65.4748   70.5156 H   0  0  0  0  0  0  0  0  0  0  0  0
    1.2710   65.3523   72.0613 H   0  0  0  0  0  0  0  0  0  0  0  0
   -1.2093   61.9030   71.7018 H   0  0  0  0  0  0  0  0  0  0  0  0
    1.1035   61.3492   71.0554 H   0  0  0  0  0  0  0  0  0  0  0  0
    1.8057   62.1356   72.4436 H   0  0  0  0  0  0  0  0  0  0  0  0
    0.2906   59.4830   72.2635 H   0  0  0  0  0  0  0  0  0  0  0  0
    1.7708   59.8286   73.1798 H   0  0  0  0  0  0  0  0  0  0  0  0
   -1.7487   61.6857   73.9824 H   0  0  0  0  0  0  0  0  0  0  0  0
   -0.2896   62.5557   74.5165 H   0  0  0  0  0  0  0  0  0  0  0  0
    1.4453   63.6340   68.8435 H   0  0  0  0  0  0  0  0  0  0  0  0
    2.9623   64.5177   68.2701 H   0  0  0  0  0  0  0  0  0  0  0  0
    4.3904   64.3074   70.9750 H   0  0  0  0  0  0  0  0  0  0  0  0
    5.8841   62.5187   71.8529 H   0  0  0  0  0  0  0  0  0  0  0  0
    5.6450   60.1767   71.0322 H   0  0  0  0  0  0  0  0  0  0  0  0
    3.9347   59.6329   69.3025 H   0  0  0  0  0  0  0  0  0  0  0  0
    2.4536   61.4221   68.4028 H   0  0  0  0  0  0  0  0  0  0  0  0
  2  1  1  0
  3  1  1  0
  4  3  1  0
  5  4  1  0
  6  5  2  0
  7  5  2  0
  8  5  1  0
  9  8  2  0
 10  9  1  0
 11 10  2  0
 12 11  1  0
 13 12  2  0
 13  8  1  0
 14 11  1  0
 15  4  1  0
 17 16  1  0
 17 15  1  0
 18 17  1  0
 19  1  1  0
 20 19  1  0
 21 20  1  0
 22 21  2  0
 23 21  1  0
 24 23  1  0
 25 24  1  0
 26 25  1  0
 27 26  1  0
 28 27  1  0
 28 24  1  0
 29 19  1  0
 30 29  1  0
 31 30  2  0
 32 31  1  0
 33 32  2  0
 34 33  1  0
 35 30  1  0
 35 34  2  0
  1 36  1  6
  2 37  1  0
  3 38  1  0
  3 39  1  0
  9 40  1  0
 10 41  1  0
 12 42  1  0
 13 43  1  0
 14 44  1  0
 14 45  1  0
 15 46  1  0
 15 47  1  0
 16 48  1  0
 16 49  1  0
 16 50  1  0
 17 51  1  0
 18 52  1  0
 18 53  1  0
 18 54  1  0
 19 55  1  1
 20 56  1  0
 24 57  1  6
 25 58  1  0
 25 59  1  0
 26 60  1  0
 26 61  1  0
 28 62  1  0
 28 63  1  0
 29 64  1  0
 29 65  1  0
 31 66  1  0
 32 67  1  0
 33 68  1  0
 34 69  1  0
 35 70  1  0
M  END
>  <score>  (5) 
-8.06

$$$$
=
     RDKit          3D

 70 72  0  0  0  0  0  0  0  0999 V2000
    1.1720   65.8560   69.6020 C   0  0  2  0  0  0  0  0  0  0  0  0
    1.9590   66.5140   70.6190 O   0  0  0  0  0  0  0  0  0  0  0  0
    0.1130   66.8220   69.0280 C   0  0  0  0  0  0  0  0  0  0  0  0
    0.6510   67.5190   67.8110 N   0  0  0  0  0  0  0  0  0  0  0  0
    1.4660   68.9940   68.0470 S   0  0  0  0  0  6  0  0  0  0  0  0
    2.2760   68.8840   69.2400 O   0  0  0  0  0  0  0  0  0  0  0  0
    0.4680   70.0370   67.9230 O   0  0  0  0  0  0  0  0  0  0  0  0
    2.5620   69.1000   66.6520 C   0  0  0  0  0  0  0  0  0  0  0  0
    2.1050   68.7340   65.3850 C   0  0  0  0  0  0  0  0  0  0  0  0
    2.9730   68.8060   64.2920 C   0  0  0  0  0  0  0  0  0  0  0  0
    4.3090   69.1820   64.4630 C   0  0  0  0  0  0  0  0  0  0  0  0
    4.7440   69.5710   65.7340 C   0  0  0  0  0  0  0  0  0  0  0  0
    3.8870   69.5020   66.8350 C   0  0  0  0  0  0  0  0  0  0  0  0
    5.1340   69.3740   63.3500 N   0  0  0  0  0  0  0  0  0  0  0  0
   -0.2200   67.4170   66.6080 C   0  0  0  0  0  0  0  0  0  0  0  0
   -2.0950   68.8330   65.7210 C   0  0  0  0  0  0  0  0  0  0  0  0
   -1.6180   67.9830   66.9000 C   0  0  0  0  0  0  0  0  0  0  0  0
   -2.6290   66.8710   67.1850 C   0  0  0  0  0  0  0  0  0  0  0  0
    0.5680   64.5860   70.2710 C   0  0  1  0  0  0  0  0  0  0  0  0
    1.3830   63.4230   69.8860 N   0  0  0  0  0  0  0  0  0  0  0  0
    2.6950   63.2860   70.2240 C   0  0  0  0  0  0  0  0  0  0  0  0
    3.4290   64.1710   70.6300 O   0  0  0  0  0  0  0  0  0  0  0  0
    3.0560   61.9920   70.0480 O   0  0  0  0  0  0  0  0  0  0  0  0
    3.0480   61.1990   71.2350 C   0  0  1  0  0  0  0  0  0  0  0  0
    3.1320   59.7330   70.8780 C   0  0  0  0  0  0  0  0  0  0  0  0
    3.6680   59.1310   72.1550 C   0  0  0  0  0  0  0  0  0  0  0  0
    4.5580   60.1020   72.7210 O   0  0  0  0  0  0  0  0  0  0  0  0
    4.2920   61.3710   72.0980 C   0  0  0  0  0  0  0  0  0  0  0  0
    0.3840   64.6910   71.8040 C   0  0  0  0  0  0  0  0  0  0  0  0
    0.3680   63.3830   72.5620 C   0  0  0  0  0  0  0  0  0  0  0  0
    1.2460   63.1880   73.6380 C   0  0  0  0  0  0  0  0  0  0  0  0
    1.2590   61.9780   74.3350 C   0  0  0  0  0  0  0  0  0  0  0  0
    0.4010   60.9480   73.9600 C   0  0  0  0  0  0  0  0  0  0  0  0
   -0.4600   61.1210   72.8790 C   0  0  0  0  0  0  0  0  0  0  0  0
   -0.4710   62.3280   72.1770 C   0  0  0  0  0  0  0  0  0  0  0  0
    1.7750   65.5531   68.7333 H   0  0  0  0  0  0  0  0  0  0  0  0
    1.6346   66.2428   71.5142 H   0  0  0  0  0  0  0  0  0  0  0  0
   -0.7867   66.2524   68.7523 H   0  0  0  0  0  0  0  0  0  0  0  0
   -0.1372   67.5741   69.7907 H   0  0  0  0  0  0  0  0  0  0  0  0
    1.0688   68.3913   65.2477 H   0  0  0  0  0  0  0  0  0  0  0  0
    2.6009   68.5641   63.2855 H   0  0  0  0  0  0  0  0  0  0  0  0
    5.7731   69.9356   65.8683 H   0  0  0  0  0  0  0  0  0  0  0  0
    4.2531   69.7624   67.8390 H   0  0  0  0  0  0  0  0  0  0  0  0
    6.1176   69.6509   63.4796 H   0  0  0  0  0  0  0  0  0  0  0  0
    4.7580   69.2385   62.4007 H   0  0  0  0  0  0  0  0  0  0  0  0
    0.2349   67.9858   65.7836 H   0  0  0  0  0  0  0  0  0  0  0  0
   -0.3184   66.3569   66.3316 H   0  0  0  0  0  0  0  0  0  0  0  0
   -2.6005   69.7338   66.0992 H   0  0  0  0  0  0  0  0  0  0  0  0
   -1.2305   69.1278   65.1080 H   0  0  0  0  0  0  0  0  0  0  0  0
   -2.7970   68.2487   65.1080 H   0  0  0  0  0  0  0  0  0  0  0  0
   -1.5451   68.6105   67.8005 H   0  0  0  0  0  0  0  0  0  0  0  0
   -2.7414   66.7474   68.2722 H   0  0  0  0  0  0  0  0  0  0  0  0
   -3.6009   67.1372   66.7438 H   0  0  0  0  0  0  0  0  0  0  0  0
   -2.2718   65.9288   66.7438 H   0  0  0  0  0  0  0  0  0  0  0  0
   -0.4599   64.4699   69.8970 H   0  0  0  0  0  0  0  0  0  0  0  0
    0.9392   62.6755   69.3335 H   0  0  0  0  0  0  0  0  0  0  0  0
    2.1328   61.5137   71.7579 H   0  0  0  0  0  0  0  0  0  0  0  0
    2.1416   59.3248   70.6283 H   0  0  0  0  0  0  0  0  0  0  0  0
    3.7534   59.5259   69.9942 H   0  0  0  0  0  0  0  0  0  0  0  0
    2.8429   58.9204   72.8513 H   0  0  0  0  0  0  0  0  0  0  0  0
    4.1878   58.1815   71.9594 H   0  0  0  0  0  0  0  0  0  0  0  0
    4.1143   62.1379   72.8663 H   0  0  0  0  0  0  0  0  0  0  0  0
    5.1486   61.6928   71.4875 H   0  0  0  0  0  0  0  0  0  0  0  0
    1.2098   65.2996   72.2009 H   0  0  0  0  0  0  0  0  0  0  0  0
   -0.6128   65.1316   71.9530 H   0  0  0  0  0  0  0  0  0  0  0  0
    1.9308   63.9957   73.9357 H   0  0  0  0  0  0  0  0  0  0  0  0
    1.9479   61.8387   75.1812 H   0  0  0  0  0  0  0  0  0  0  0  0
    0.4030   59.9991   74.5164 H   0  0  0  0  0  0  0  0  0  0  0  0
   -1.1330   60.3048   72.5775 H   0  0  0  0  0  0  0  0  0  0  0  0
   -1.1432   62.4520   71.3152 H   0  0  0  0  0  0  0  0  0  0  0  0
  2  1  1  0
  3  1  1  0
  4  3  1  0
  5  4  1  0
  6  5  2  0
  7  5  2  0
  8  5  1  0
  9  8  2  0
 10  9  1  0
 11 10  2  0
 12 11  1  0
 13 12  2  0
 13  8  1  0
 14 11  1  0
 15  4  1  0
 17 16  1  0
 17 15  1  0
 18 17  1  0
 19  1  1  0
 20 19  1  0
 21 20  1  0
 22 21  2  0
 23 21  1  0
 24 23  1  0
 25 24  1  0
 26 25  1  0
 27 26  1  0
 28 27  1  0
 28 24  1  0
 29 19  1  0
 30 29  1  0
 31 30  2  0
 32 31  1  0
 33 32  2  0
 34 33  1  0
 35 30  1  0
 35 34  2  0
  1 36  1  6
  2 37  1  0
  3 38  1  0
  3 39  1  0
  9 40  1  0
 10 41  1  0
 12 42  1  0
 13 43  1  0
 14 44  1  0
 14 45  1  0
 15 46  1  0
 15 47  1  0
 16 48  1  0
 16 49  1  0
 16 50  1  0
 17 51  1  0
 18 52  1  0
 18 53  1  0
 18 54  1  0
 19 55  1  6
 20 56  1  0
 24 57  1  1
 25 58  1  0
 25 59  1  0
 26 60  1  0
 26 61  1  0
 28 62  1  0
 28 63  1  0
 29 64  1  0
 29 65  1  0
 31 66  1  0
 32 67  1  0
 33 68  1  0
 34 69  1  0
 35 70  1  0
M  END
>  <score>  (6) 
-7.982

$$$$
=
     RDKit          3D

 70 72  0  0  0  0  0  0  0  0999 V2000
    2.6350   60.6380   73.8090 C   0  0  2  0  0  0  0  0  0  0  0  0
    2.9740   61.0220   75.1600 O   0  0  0  0  0  0  0  0  0  0  0  0
    1.1290   60.3170   73.7010 C   0  0  0  0  0  0  0  0  0  0  0  0
    0.3240   61.5840   73.7330 N   0  0  0  0  0  0  0  0  0  0  0  0
   -0.5410   61.9290   75.1570 S   0  0  0  0  0  6  0  0  0  0  0  0
   -1.0270   63.2900   75.0800 O   0  0  0  0  0  0  0  0  0  0  0  0
    0.2980   61.5040   76.2590 O   0  0  0  0  0  0  0  0  0  0  0  0
   -1.9460   60.8440   75.0720 C   0  0  0  0  0  0  0  0  0  0  0  0
   -3.1740   61.3360   74.6260 C   0  0  0  0  0  0  0  0  0  0  0  0
   -4.2790   60.4830   74.5720 C   0  0  0  0  0  0  0  0  0  0  0  0
   -4.1850   59.1600   75.0160 C   0  0  0  0  0  0  0  0  0  0  0  0
   -2.9430   58.6750   75.4350 C   0  0  0  0  0  0  0  0  0  0  0  0
   -1.8290   59.5180   75.4950 C   0  0  0  0  0  0  0  0  0  0  0  0
   -5.2590   58.2820   74.8400 N   0  0  0  0  0  0  0  0  0  0  0  0
   -0.3390   61.9260   72.4450 C   0  0  0  0  0  0  0  0  0  0  0  0
    1.5880   63.5330   72.3370 C   0  0  0  0  0  0  0  0  0  0  0  0
    0.1280   63.3010   71.9420 C   0  0  0  0  0  0  0  0  0  0  0  0
   -0.0300   63.4320   70.4270 C   0  0  0  0  0  0  0  0  0  0  0  0
    3.5610   59.4370   73.4530 C   0  0  1  0  0  0  0  0  0  0  0  0
    2.9830   58.2150   74.0340 N   0  0  0  0  0  0  0  0  0  0  0  0
    3.2030   57.8230   75.3190 C   0  0  0  0  0  0  0  0  0  0  0  0
    4.0780   58.2420   76.0590 O   0  0  0  0  0  0  0  0  0  0  0  0
    2.2770   56.8940   75.6560 O   0  0  0  0  0  0  0  0  0  0  0  0
    1.8120   56.0880   74.5720 C   0  0  1  0  0  0  0  0  0  0  0  0
    2.2170   54.6480   74.7870 C   0  0  0  0  0  0  0  0  0  0  0  0
    1.2170   53.9110   73.9280 C   0  0  0  0  0  0  0  0  0  0  0  0
   -0.0070   54.6550   73.9990 O   0  0  0  0  0  0  0  0  0  0  0  0
    0.2950   55.9680   74.5040 C   0  0  0  0  0  0  0  0  0  0  0  0
    3.8650   59.2820   71.9430 C   0  0  0  0  0  0  0  0  0  0  0  0
    3.9380   60.5650   71.1470 C   0  0  0  0  0  0  0  0  0  0  0  0
    3.1050   60.7440   70.0330 C   0  0  0  0  0  0  0  0  0  0  0  0
    3.1740   61.9140   69.2730 C   0  0  0  0  0  0  0  0  0  0  0  0
    4.0820   62.9130   69.6130 C   0  0  0  0  0  0  0  0  0  0  0  0
    4.9310   62.7380   70.7030 C   0  0  0  0  0  0  0  0  0  0  0  0
    4.8670   61.5660   71.4600 C   0  0  0  0  0  0  0  0  0  0  0  0
    2.8017   61.4492   73.0850 H   0  0  0  0  0  0  0  0  0  0  0  0
    2.4738   60.4554   75.7995 H   0  0  0  0  0  0  0  0  0  0  0  0
    0.9372   59.7887   72.7554 H   0  0  0  0  0  0  0  0  0  0  0  0
    0.8355   59.6843   74.5516 H   0  0  0  0  0  0  0  0  0  0  0  0
   -3.2708   62.3879   74.3193 H   0  0  0  0  0  0  0  0  0  0  0  0
   -5.2347   60.8564   74.1755 H   0  0  0  0  0  0  0  0  0  0  0  0
   -2.8406   57.6178   75.7209 H   0  0  0  0  0  0  0  0  0  0  0  0
   -0.8676   59.1397   75.8726 H   0  0  0  0  0  0  0  0  0  0  0  0
   -5.1872   57.3082   75.1679 H   0  0  0  0  0  0  0  0  0  0  0  0
   -6.1219   58.6090   74.3825 H   0  0  0  0  0  0  0  0  0  0  0  0
   -0.0863   61.1622   71.6948 H   0  0  0  0  0  0  0  0  0  0  0  0
   -1.4268   61.9587   72.6049 H   0  0  0  0  0  0  0  0  0  0  0  0
    1.6734   63.5466   73.4336 H   0  0  0  0  0  0  0  0  0  0  0  0
    2.2110   62.7226   71.9307 H   0  0  0  0  0  0  0  0  0  0  0  0
    1.9291   64.4966   71.9307 H   0  0  0  0  0  0  0  0  0  0  0  0
   -0.5076   64.0651   72.4133 H   0  0  0  0  0  0  0  0  0  0  0  0
   -0.8590   64.1194   70.2029 H   0  0  0  0  0  0  0  0  0  0  0  0
    0.9009   63.8269   69.9940 H   0  0  0  0  0  0  0  0  0  0  0  0
   -0.2456   62.4440   69.9940 H   0  0  0  0  0  0  0  0  0  0  0  0
    4.5493   59.6365   73.8929 H   0  0  0  0  0  0  0  0  0  0  0  0
    2.3821   57.6270   73.4390 H   0  0  0  0  0  0  0  0  0  0  0  0
    2.2314   56.5752   73.6794 H   0  0  0  0  0  0  0  0  0  0  0  0
    3.2471   54.4671   74.4463 H   0  0  0  0  0  0  0  0  0  0  0  0
    2.2104   54.3375   75.8422 H   0  0  0  0  0  0  0  0  0  0  0  0
    1.5723   53.8621   72.8881 H   0  0  0  0  0  0  0  0  0  0  0  0
    1.0757   52.8781   74.2791 H   0  0  0  0  0  0  0  0  0  0  0  0
   -0.1135   56.7344   73.8289 H   0  0  0  0  0  0  0  0  0  0  0  0
   -0.1528   56.1161   75.4978 H   0  0  0  0  0  0  0  0  0  0  0  0
    4.8336   58.7698   71.8455 H   0  0  0  0  0  0  0  0  0  0  0  0
    3.0156   58.7216   71.5253 H   0  0  0  0  0  0  0  0  0  0  0  0
    2.3903   59.9553   69.7550 H   0  0  0  0  0  0  0  0  0  0  0  0
    2.5106   62.0460   68.4055 H   0  0  0  0  0  0  0  0  0  0  0  0
    4.1288   63.8393   69.0215 H   0  0  0  0  0  0  0  0  0  0  0  0
    5.6532   63.5242   70.9682 H   0  0  0  0  0  0  0  0  0  0  0  0
    5.5520   61.4276   72.3095 H   0  0  0  0  0  0  0  0  0  0  0  0
  2  1  1  0
  3  1  1  0
  4  3  1  0
  5  4  1  0
  6  5  2  0
  7  5  2  0
  8  5  1  0
  9  8  2  0
 10  9  1  0
 11 10  2  0
 12 11  1  0
 13 12  2  0
 13  8  1  0
 14 11  1  0
 15  4  1  0
 17 16  1  0
 17 15  1  0
 18 17  1  0
 19  1  1  0
 20 19  1  0
 21 20  1  0
 22 21  2  0
 23 21  1  0
 24 23  1  0
 25 24  1  0
 26 25  1  0
 27 26  1  0
 28 27  1  0
 28 24  1  0
 29 19  1  0
 30 29  1  0
 31 30  2  0
 32 31  1  0
 33 32  2  0
 34 33  1  0
 35 30  1  0
 35 34  2  0
  1 36  1  6
  2 37  1  0
  3 38  1  0
  3 39  1  0
  9 40  1  0
 10 41  1  0
 12 42  1  0
 13 43  1  0
 14 44  1  0
 14 45  1  0
 15 46  1  0
 15 47  1  0
 16 48  1  0
 16 49  1  0
 16 50  1  0
 17 51  1  0
 18 52  1  0
 18 53  1  0
 18 54  1  0
 19 55  1  1
 20 56  1  0
 24 57  1  6
 25 58  1  0
 25 59  1  0
 26 60  1  0
 26 61  1  0
 28 62  1  0
 28 63  1  0
 29 64  1  0
 29 65  1  0
 31 66  1  0
 32 67  1  0
 33 68  1  0
 34 69  1  0
 35 70  1  0
M  END
>  <score>  (7) 
-7.895

$$$$
=
     RDKit          3D

 70 72  0  0  0  0  0  0  0  0999 V2000
    3.7720   59.6510   74.4290 C   0  0  2  0  0  0  0  0  0  0  0  0
    4.3480   58.5640   73.6710 O   0  0  0  0  0  0  0  0  0  0  0  0
    2.5240   59.1690   75.2000 C   0  0  0  0  0  0  0  0  0  0  0  0
    2.3070   57.7010   74.9730 N   0  0  0  0  0  0  0  0  0  0  0  0
    1.2310   57.2480   73.7350 S   0  0  0  0  0  6  0  0  0  0  0  0
    0.7370   55.9180   74.0210 O   0  0  0  0  0  0  0  0  0  0  0  0
    1.9030   57.5340   72.4840 O   0  0  0  0  0  0  0  0  0  0  0  0
   -0.1250   58.3830   73.9170 C   0  0  0  0  0  0  0  0  0  0  0  0
   -0.0770   59.6230   73.2790 C   0  0  0  0  0  0  0  0  0  0  0  0
   -1.1390   60.5190   73.4330 C   0  0  0  0  0  0  0  0  0  0  0  0
   -2.2190   60.2110   74.2660 C   0  0  0  0  0  0  0  0  0  0  0  0
   -2.2640   58.9530   74.8770 C   0  0  0  0  0  0  0  0  0  0  0  0
   -1.2080   58.0500   74.7320 C   0  0  0  0  0  0  0  0  0  0  0  0
   -3.3330   61.0550   74.3150 N   0  0  0  0  0  0  0  0  0  0  0  0
    2.2840   56.8820   76.2160 C   0  0  0  0  0  0  0  0  0  0  0  0
    3.2140   56.7100   78.5430 C   0  0  0  0  0  0  0  0  0  0  0  0
    3.4560   57.2580   77.1350 C   0  0  0  0  0  0  0  0  0  0  0  0
    4.7890   56.7370   76.5940 C   0  0  0  0  0  0  0  0  0  0  0  0
    3.4780   60.7870   73.4050 C   0  0  1  0  0  0  0  0  0  0  0  0
    2.9940   61.9650   74.1430 N   0  0  0  0  0  0  0  0  0  0  0  0
    1.9540   62.7350   73.7200 C   0  0  0  0  0  0  0  0  0  0  0  0
    1.4730   62.7400   72.5980 O   0  0  0  0  0  0  0  0  0  0  0  0
    1.5240   63.4940   74.7550 O   0  0  0  0  0  0  0  0  0  0  0  0
    0.1070   63.6490   74.8410 C   0  0  1  0  0  0  0  0  0  0  0  0
   -0.4100   62.9900   76.0990 C   0  0  0  0  0  0  0  0  0  0  0  0
   -1.7230   63.7060   76.3080 C   0  0  0  0  0  0  0  0  0  0  0  0
   -1.5280   65.0550   75.8610 O   0  0  0  0  0  0  0  0  0  0  0  0
   -0.3420   65.0900   75.0480 C   0  0  0  0  0  0  0  0  0  0  0  0
    4.6590   61.1300   72.4650 C   0  0  0  0  0  0  0  0  0  0  0  0
    4.2880   61.7060   71.1180 C   0  0  0  0  0  0  0  0  0  0  0  0
    3.4410   60.9900   70.2600 C   0  0  0  0  0  0  0  0  0  0  0  0
    3.1050   61.4980   69.0040 C   0  0  0  0  0  0  0  0  0  0  0  0
    3.6180   62.7240   68.5880 C   0  0  0  0  0  0  0  0  0  0  0  0
    4.4780   63.4350   69.4210 C   0  0  0  0  0  0  0  0  0  0  0  0
    4.8190   62.9260   70.6750 C   0  0  0  0  0  0  0  0  0  0  0  0
    4.4522   60.0318   75.2051 H   0  0  0  0  0  0  0  0  0  0  0  0
    4.7088   57.8831   74.2925 H   0  0  0  0  0  0  0  0  0  0  0  0
    2.6680   59.3527   76.2749 H   0  0  0  0  0  0  0  0  0  0  0  0
    1.6441   59.7212   74.8382 H   0  0  0  0  0  0  0  0  0  0  0  0
    0.7905   59.8937   72.6591 H   0  0  0  0  0  0  0  0  0  0  0  0
   -1.1248   61.4771   72.8928 H   0  0  0  0  0  0  0  0  0  0  0  0
   -3.1410   58.6718   75.4785 H   0  0  0  0  0  0  0  0  0  0  0  0
   -1.2299   57.0833   75.2565 H   0  0  0  0  0  0  0  0  0  0  0  0
   -4.1268   60.8250   74.9298 H   0  0  0  0  0  0  0  0  0  0  0  0
   -3.3597   61.9067   73.7363 H   0  0  0  0  0  0  0  0  0  0  0  0
    1.3372   57.0586   76.7474 H   0  0  0  0  0  0  0  0  0  0  0  0
    2.3754   55.8206   75.9422 H   0  0  0  0  0  0  0  0  0  0  0  0
    3.5415   57.4517   79.2864 H   0  0  0  0  0  0  0  0  0  0  0  0
    2.1417   56.5050   78.6774 H   0  0  0  0  0  0  0  0  0  0  0  0
    3.7849   55.7794   78.6774 H   0  0  0  0  0  0  0  0  0  0  0  0
    3.5141   58.3558   77.1719 H   0  0  0  0  0  0  0  0  0  0  0  0
    5.4500   56.4787   77.4345 H   0  0  0  0  0  0  0  0  0  0  0  0
    4.6107   55.8424   75.9793 H   0  0  0  0  0  0  0  0  0  0  0  0
    5.2646   57.5154   75.9793 H   0  0  0  0  0  0  0  0  0  0  0  0
    2.7011   60.4222   72.7170 H   0  0  0  0  0  0  0  0  0  0  0  0
    3.4654   62.2193   75.0228 H   0  0  0  0  0  0  0  0  0  0  0  0
   -0.2638   63.2304   73.8938 H   0  0  0  0  0  0  0  0  0  0  0  0
   -0.5618   61.9105   75.9519 H   0  0  0  0  0  0  0  0  0  0  0  0
    0.2777   63.0635   76.9544 H   0  0  0  0  0  0  0  0  0  0  0  0
   -2.5172   63.2222   75.7205 H   0  0  0  0  0  0  0  0  0  0  0  0
   -2.0273   63.6776   77.3647 H   0  0  0  0  0  0  0  0  0  0  0  0
   -0.5642   65.5583   74.0778 H   0  0  0  0  0  0  0  0  0  0  0  0
    0.4485   65.6782   75.5370 H   0  0  0  0  0  0  0  0  0  0  0  0
    5.2973   61.8629   72.9802 H   0  0  0  0  0  0  0  0  0  0  0  0
    5.1557   60.1721   72.2512 H   0  0  0  0  0  0  0  0  0  0  0  0
    3.0372   60.0181   70.5800 H   0  0  0  0  0  0  0  0  0  0  0  0
    2.4347   60.9296   68.3425 H   0  0  0  0  0  0  0  0  0  0  0  0
    3.3443   63.1301   67.6030 H   0  0  0  0  0  0  0  0  0  0  0  0
    4.8895   64.3999   69.0900 H   0  0  0  0  0  0  0  0  0  0  0  0
    5.5102   63.4866   71.3214 H   0  0  0  0  0  0  0  0  0  0  0  0
  2  1  1  0
  3  1  1  0
  4  3  1  0
  5  4  1  0
  6  5  2  0
  7  5  2  0
  8  5  1  0
  9  8  2  0
 10  9  1  0
 11 10  2  0
 12 11  1  0
 13 12  2  0
 13  8  1  0
 14 11  1  0
 15  4  1  0
 17 16  1  0
 17 15  1  0
 18 17  1  0
 19  1  1  0
 20 19  1  0
 21 20  1  0
 22 21  2  0
 23 21  1  0
 24 23  1  0
 25 24  1  0
 26 25  1  0
 27 26  1  0
 28 27  1  0
 28 24  1  0
 29 19  1  0
 30 29  1  0
 31 30  2  0
 32 31  1  0
 33 32  2  0
 34 33  1  0
 35 30  1  0
 35 34  2  0
  1 36  1  1
  2 37  1  0
  3 38  1  0
  3 39  1  0
  9 40  1  0
 10 41  1  0
 12 42  1  0
 13 43  1  0
 14 44  1  0
 14 45  1  0
 15 46  1  0
 15 47  1  0
 16 48  1  0
 16 49  1  0
 16 50  1  0
 17 51  1  0
 18 52  1  0
 18 53  1  0
 18 54  1  0
 19 55  1  6
 20 56  1  0
 24 57  1  6
 25 58  1  0
 25 59  1  0
 26 60  1  0
 26 61  1  0
 28 62  1  0
 28 63  1  0
 29 64  1  0
 29 65  1  0
 31 66  1  0
 32 67  1  0
 33 68  1  0
 34 69  1  0
 35 70  1  0
M  END
>  <score>  (8) 
-7.835

$$$$
=
     RDKit          3D

 70 72  0  0  0  0  0  0  0  0999 V2000
    2.3080   57.7200   72.7150 C   0  0  2  0  0  0  0  0  0  0  0  0
    2.8520   56.8130   71.7320 O   0  0  0  0  0  0  0  0  0  0  0  0
    0.8610   57.3200   73.0770 C   0  0  0  0  0  0  0  0  0  0  0  0
    0.8370   56.5820   74.3840 N   0  0  0  0  0  0  0  0  0  0  0  0
    0.4560   57.4750   75.7820 S   0  0  0  0  0  6  0  0  0  0  0  0
    1.2230   58.7020   75.7650 O   0  0  0  0  0  0  0  0  0  0  0  0
    0.5580   56.5540   76.8960 O   0  0  0  0  0  0  0  0  0  0  0  0
   -1.2550   57.8990   75.5610 C   0  0  0  0  0  0  0  0  0  0  0  0
   -2.2460   56.9760   75.9010 C   0  0  0  0  0  0  0  0  0  0  0  0
   -3.5900   57.3080   75.7150 C   0  0  0  0  0  0  0  0  0  0  0  0
   -3.9520   58.5280   75.1350 C   0  0  0  0  0  0  0  0  0  0  0  0
   -2.9500   59.4520   74.8240 C   0  0  0  0  0  0  0  0  0  0  0  0
   -1.6010   59.1320   75.0050 C   0  0  0  0  0  0  0  0  0  0  0  0
   -5.2980   58.9040   75.0700 N   0  0  0  0  0  0  0  0  0  0  0  0
    1.8860   55.5350   74.5200 C   0  0  0  0  0  0  0  0  0  0  0  0
    1.5060   53.3560   75.7110 C   0  0  0  0  0  0  0  0  0  0  0  0
    1.2690   54.1320   74.4130 C   0  0  0  0  0  0  0  0  0  0  0  0
   -0.2290   54.1950   74.1080 C   0  0  0  0  0  0  0  0  0  0  0  0
    2.4320   59.1480   72.1070 C   0  0  1  0  0  0  0  0  0  0  0  0
    2.1600   60.1310   73.1670 N   0  0  0  0  0  0  0  0  0  0  0  0
    1.1140   61.0020   73.1280 C   0  0  0  0  0  0  0  0  0  0  0  0
    0.4460   61.2780   72.1450 O   0  0  0  0  0  0  0  0  0  0  0  0
    0.9210   61.5080   74.3680 O   0  0  0  0  0  0  0  0  0  0  0  0
   -0.1120   62.4900   74.4650 C   0  0  1  0  0  0  0  0  0  0  0  0
   -0.5520   62.6370   75.9030 C   0  0  0  0  0  0  0  0  0  0  0  0
   -1.1690   64.0160   75.9000 C   0  0  0  0  0  0  0  0  0  0  0  0
   -0.4060   64.8010   74.9730 O   0  0  0  0  0  0  0  0  0  0  0  0
    0.3530   63.9040   74.1440 C   0  0  0  0  0  0  0  0  0  0  0  0
    3.7690   59.4250   71.3790 C   0  0  0  0  0  0  0  0  0  0  0  0
    3.9080   60.7890   70.7420 C   0  0  0  0  0  0  0  0  0  0  0  0
    3.1710   61.1000   69.5890 C   0  0  0  0  0  0  0  0  0  0  0  0
    3.3020   62.3470   68.9760 C   0  0  0  0  0  0  0  0  0  0  0  0
    4.1760   63.2950   69.5030 C   0  0  0  0  0  0  0  0  0  0  0  0
    4.9300   62.9910   70.6340 C   0  0  0  0  0  0  0  0  0  0  0  0
    4.8040   61.7420   71.2450 C   0  0  0  0  0  0  0  0  0  0  0  0
    2.8555   57.6858   73.6684 H   0  0  0  0  0  0  0  0  0  0  0  0
    3.3032   56.0608   72.1910 H   0  0  0  0  0  0  0  0  0  0  0  0
    0.2438   58.2267   73.1606 H   0  0  0  0  0  0  0  0  0  0  0  0
    0.4625   56.6649   72.2883 H   0  0  0  0  0  0  0  0  0  0  0  0
   -1.9702   55.9939   76.3126 H   0  0  0  0  0  0  0  0  0  0  0  0
   -4.3728   56.6016   76.0284 H   0  0  0  0  0  0  0  0  0  0  0  0
   -3.2261   60.4422   74.4324 H   0  0  0  0  0  0  0  0  0  0  0  0
   -0.8179   59.8466   74.7114 H   0  0  0  0  0  0  0  0  0  0  0  0
   -5.5615   59.8032   74.6422 H   0  0  0  0  0  0  0  0  0  0  0  0
   -6.0255   58.2817   75.4499 H   0  0  0  0  0  0  0  0  0  0  0  0
    2.6308   55.6640   73.7209 H   0  0  0  0  0  0  0  0  0  0  0  0
    2.3629   55.6377   75.5059 H   0  0  0  0  0  0  0  0  0  0  0  0
    1.3059   54.0112   76.5716 H   0  0  0  0  0  0  0  0  0  0  0  0
    0.8322   52.4872   75.7471 H   0  0  0  0  0  0  0  0  0  0  0  0
    2.5502   53.0119   75.7471 H   0  0  0  0  0  0  0  0  0  0  0  0
    1.7605   53.6117   73.5777 H   0  0  0  0  0  0  0  0  0  0  0  0
   -0.7945   54.2188   75.0512 H   0  0  0  0  0  0  0  0  0  0  0  0
   -0.4470   55.1031   73.5268 H   0  0  0  0  0  0  0  0  0  0  0  0
   -0.5225   53.3084   73.5268 H   0  0  0  0  0  0  0  0  0  0  0  0
    1.6827   59.2353   71.3064 H   0  0  0  0  0  0  0  0  0  0  0  0
    2.7924   60.1620   73.9794 H   0  0  0  0  0  0  0  0  0  0  0  0
   -0.8814   62.1368   73.7627 H   0  0  0  0  0  0  0  0  0  0  0  0
   -1.2904   61.8688   76.1761 H   0  0  0  0  0  0  0  0  0  0  0  0
    0.2628   62.5160   76.6320 H   0  0  0  0  0  0  0  0  0  0  0  0
   -2.2193   63.9618   75.5778 H   0  0  0  0  0  0  0  0  0  0  0  0
   -1.1534   64.4612   76.9058 H   0  0  0  0  0  0  0  0  0  0  0  0
    0.1720   64.1281   73.0824 H   0  0  0  0  0  0  0  0  0  0  0  0
    1.4306   64.0132   74.3360 H   0  0  0  0  0  0  0  0  0  0  0  0
    4.5810   59.3120   72.1124 H   0  0  0  0  0  0  0  0  0  0  0  0
    3.8084   58.7050   70.5483 H   0  0  0  0  0  0  0  0  0  0  0  0
    2.4834   60.3538   69.1643 H   0  0  0  0  0  0  0  0  0  0  0  0
    2.7146   62.5814   68.0760 H   0  0  0  0  0  0  0  0  0  0  0  0
    4.2706   64.2820   69.0268 H   0  0  0  0  0  0  0  0  0  0  0  0
    5.6260   63.7363   71.0465 H   0  0  0  0  0  0  0  0  0  0  0  0
    5.4135   61.5038   72.1292 H   0  0  0  0  0  0  0  0  0  0  0  0
  2  1  1  0
  3  1  1  0
  4  3  1  0
  5  4  1  0
  6  5  2  0
  7  5  2  0
  8  5  1  0
  9  8  2  0
 10  9  1  0
 11 10  2  0
 12 11  1  0
 13 12  2  0
 13  8  1  0
 14 11  1  0
 15  4  1  0
 17 16  1  0
 17 15  1  0
 18 17  1  0
 19  1  1  0
 20 19  1  0
 21 20  1  0
 22 21  2  0
 23 21  1  0
 24 23  1  0
 25 24  1  0
 26 25  1  0
 27 26  1  0
 28 27  1  0
 28 24  1  0
 29 19  1  0
 30 29  1  0
 31 30  2  0
 32 31  1  0
 33 32  2  0
 34 33  1  0
 35 30  1  0
 35 34  2  0
  1 36  1  1
  2 37  1  0
  3 38  1  0
  3 39  1  0
  9 40  1  0
 10 41  1  0
 12 42  1  0
 13 43  1  0
 14 44  1  0
 14 45  1  0
 15 46  1  0
 15 47  1  0
 16 48  1  0
 16 49  1  0
 16 50  1  0
 17 51  1  0
 18 52  1  0
 18 53  1  0
 18 54  1  0
 19 55  1  6
 20 56  1  0
 24 57  1  6
 25 58  1  0
 25 59  1  0
 26 60  1  0
 26 61  1  0
 28 62  1  0
 28 63  1  0
 29 64  1  0
 29 65  1  0
 31 66  1  0
 32 67  1  0
 33 68  1  0
 34 69  1  0
 35 70  1  0
M  END
>  <score>  (9) 
-7.266

$$$$
