=
     RDKit          3D

 55 59  0  0  0  0  0  0  0  0999 V2000
    3.5760   61.0440   71.1730 C   0  0  1  0  0  0  0  0  0  0  0  0
    4.3570   62.3770   71.1420 C   0  0  0  0  0  0  0  0  0  0  0  0
    5.5780   62.3930   71.3050 O   0  0  0  0  0  0  0  0  0  0  0  0
    3.6750   63.5120   70.8800 O   0  0  0  0  0  0  0  0  0  0  0  0
    2.2480   63.6270   71.0630 C   0  0  0  0  0  0  0  0  0  0  0  0
    1.6190   62.4520   71.7250 C   0  0  0  0  0  0  0  0  0  0  0  0
    2.2180   61.2480   71.8020 C   0  0  0  0  0  0  0  0  0  0  0  0
    1.5450   60.1340   72.4580 C   0  0  0  0  0  0  0  0  0  0  0  0
    0.3340   60.3280   72.9870 C   0  0  0  0  0  0  0  0  0  0  0  0
   -0.5510   59.4170   73.6990 C   0  0  0  0  0  0  0  0  0  0  0  0
   -0.3190   58.1300   73.9740 N   0  0  0  0  0  0  0  0  0  0  0  0
   -1.2830   57.4850   74.6460 C   0  0  0  0  0  0  0  0  0  0  0  0
   -1.0610   56.1480   74.9260 C   0  0  0  0  0  0  0  0  0  0  0  0
   -1.9860   55.3760   75.6250 C   0  0  0  0  0  0  0  0  0  0  0  0
   -3.1650   55.9620   76.0610 C   0  0  0  0  0  0  0  0  0  0  0  0
   -3.4520   57.3120   75.8050 C   0  0  0  0  0  0  0  0  0  0  0  0
   -2.5030   58.0960   75.0810 C   0  0  0  0  0  0  0  0  0  0  0  0
   -2.6870   59.4630   74.7500 C   0  0  0  0  0  0  0  0  0  0  0  0
   -1.6940   60.1190   74.0490 C   0  0  0  0  0  0  0  0  0  0  0  0
   -1.6040   61.5320   73.5560 C   0  0  0  0  0  0  0  0  0  0  0  0
   -0.2900   61.5580   72.9130 N   0  0  0  0  0  0  0  0  0  0  0  0
    0.2550   62.6620   72.3080 C   0  0  0  0  0  0  0  0  0  0  0  0
   -0.3140   63.7450   72.2360 O   0  0  0  0  0  0  0  0  0  0  0  0
    3.5170   58.9610   69.6510 C   0  0  0  0  0  0  0  0  0  0  0  0
    3.4310   60.4810   69.7430 C   0  0  0  0  0  0  0  0  0  0  0  0
    4.3100   60.1060   71.9710 O   0  0  0  0  0  0  0  0  0  0  0  0
   -4.0640   55.2230   76.7760 O   0  0  0  0  0  0  0  0  0  0  0  0
   -4.7430   57.8920   76.3290 C   0  0  0  0  0  0  0  0  0  0  0  0
   -5.9810   57.3510   75.6360 N   0  0  0  0  0  4  0  0  0  0  0  0
   -6.2350   58.0220   74.3120 C   0  0  0  0  0  0  0  0  0  0  0  0
   -7.1880   57.4270   76.5250 C   0  0  0  0  0  0  0  0  0  0  0  0
    2.0503   64.5164   71.6793 H   0  0  0  0  0  0  0  0  0  0  0  0
    1.8061   63.6964   70.0581 H   0  0  0  0  0  0  0  0  0  0  0  0
    2.0276   59.1473   72.5166 H   0  0  0  0  0  0  0  0  0  0  0  0
   -0.1251   55.6805   74.5860 H   0  0  0  0  0  0  0  0  0  0  0  0
   -1.7838   54.3141   75.8288 H   0  0  0  0  0  0  0  0  0  0  0  0
   -3.6049   59.9917   75.0466 H   0  0  0  0  0  0  0  0  0  0  0  0
   -2.4044   61.7534   72.8346 H   0  0  0  0  0  0  0  0  0  0  0  0
   -1.7186   62.2829   74.3516 H   0  0  0  0  0  0  0  0  0  0  0  0
    3.5412   58.5331   70.6641 H   0  0  0  0  0  0  0  0  0  0  0  0
    2.6392   58.5761   69.1113 H   0  0  0  0  0  0  0  0  0  0  0  0
    4.4326   58.6775   69.1113 H   0  0  0  0  0  0  0  0  0  0  0  0
    4.2320   60.9088   69.1223 H   0  0  0  0  0  0  0  0  0  0  0  0
    2.4245   60.7593   69.3973 H   0  0  0  0  0  0  0  0  0  0  0  0
    4.1588   60.2992   72.9301 H   0  0  0  0  0  0  0  0  0  0  0  0
   -4.9070   55.6368   77.0894 H   0  0  0  0  0  0  0  0  0  0  0  0
   -4.8170   57.6615   77.4020 H   0  0  0  0  0  0  0  0  0  0  0  0
   -4.7121   58.9740   76.1333 H   0  0  0  0  0  0  0  0  0  0  0  0
   -5.7974   56.3570   75.4384 H   0  0  0  0  0  0  0  0  0  0  0  0
   -6.6197   59.0381   74.4837 H   0  0  0  0  0  0  0  0  0  0  0  0
   -5.2955   58.0770   73.7426 H   0  0  0  0  0  0  0  0  0  0  0  0
   -6.9754   57.4410   73.7426 H   0  0  0  0  0  0  0  0  0  0  0  0
   -6.8698   57.4070   77.5778 H   0  0  0  0  0  0  0  0  0  0  0  0
   -7.7329   58.3612   76.3244 H   0  0  0  0  0  0  0  0  0  0  0  0
   -7.8458   56.5685   76.3244 H   0  0  0  0  0  0  0  0  0  0  0  0
  2  1  1  0
  3  2  2  0
  4  2  1  0
  5  4  1  0
  6  5  1  0
  7  6  2  0
  7  1  1  0
  8  7  1  0
  9  8  2  0
 10  9  1  0
 11 10  2  0
 12 11  1  0
 13 12  2  0
 14 13  1  0
 15 14  2  0
 16 15  1  0
 17 16  2  0
 17 12  1  0
 18 17  1  0
 19 18  2  0
 19 10  1  0
 20 19  1  0
 21 20  1  0
 21  9  1  0
 22 21  1  0
 22  6  1  0
 23 22  2  0
 25 24  1  0
 25  1  1  0
  1 26  1  1
 27 15  1  0
 28 16  1  0
 29 28  1  0
 30 29  1  0
 31 29  1  0
  5 32  1  0
  5 33  1  0
  8 34  1  0
 13 35  1  0
 14 36  1  0
 18 37  1  0
 20 38  1  0
 20 39  1  0
 24 40  1  0
 24 41  1  0
 24 42  1  0
 25 43  1  0
 25 44  1  0
 26 45  1  0
 27 46  1  0
 28 47  1  0
 28 48  1  0
 29 49  1  0
 30 50  1  0
 30 51  1  0
 30 52  1  0
 31 53  1  0
 31 54  1  0
 31 55  1  0
M  CHG  1  29   1
M  END
>  <score>  (1) 
-8.72

$$$$
=
     RDKit          3D

 55 59  0  0  0  0  0  0  0  0999 V2000
    3.8680   61.8850   70.5000 C   0  0  1  0  0  0  0  0  0  0  0  0
    4.1310   63.4000   70.6480 C   0  0  0  0  0  0  0  0  0  0  0  0
    5.2820   63.8400   70.6580 O   0  0  0  0  0  0  0  0  0  0  0  0
    3.0690   64.2310   70.7100 O   0  0  0  0  0  0  0  0  0  0  0  0
    1.7490   63.7850   71.0890 C   0  0  0  0  0  0  0  0  0  0  0  0
    1.6920   62.3780   71.5680 C   0  0  0  0  0  0  0  0  0  0  0  0
    2.6660   61.4810   71.3210 C   0  0  0  0  0  0  0  0  0  0  0  0
    2.5470   60.1140   71.8120 C   0  0  0  0  0  0  0  0  0  0  0  0
    1.4650   59.7690   72.5160 C   0  0  0  0  0  0  0  0  0  0  0  0
    1.0920   58.5020   73.1300 C   0  0  0  0  0  0  0  0  0  0  0  0
    1.7930   57.3660   73.1040 N   0  0  0  0  0  0  0  0  0  0  0  0
    1.2500   56.3200   73.7430 C   0  0  0  0  0  0  0  0  0  0  0  0
    1.9600   55.1330   73.7130 C   0  0  0  0  0  0  0  0  0  0  0  0
    1.5000   53.9810   74.3480 C   0  0  0  0  0  0  0  0  0  0  0  0
    0.2980   54.0220   75.0370 C   0  0  0  0  0  0  0  0  0  0  0  0
   -0.4720   55.1940   75.1010 C   0  0  0  0  0  0  0  0  0  0  0  0
    0.0000   56.3690   74.4420 C   0  0  0  0  0  0  0  0  0  0  0  0
   -0.6940   57.6050   74.4240 C   0  0  0  0  0  0  0  0  0  0  0  0
   -0.1330   58.6760   73.7560 C   0  0  0  0  0  0  0  0  0  0  0  0
   -0.6210   60.0800   73.5560 C   0  0  0  0  0  0  0  0  0  0  0  0
    0.4600   60.6800   72.7740 N   0  0  0  0  0  0  0  0  0  0  0  0
    0.4740   61.9840   72.3470 C   0  0  0  0  0  0  0  0  0  0  0  0
   -0.4310   62.7800   72.5690 O   0  0  0  0  0  0  0  0  0  0  0  0
    3.7460   62.7110   68.0590 C   0  0  0  0  0  0  0  0  0  0  0  0
    3.6540   61.5250   69.0150 C   0  0  0  0  0  0  0  0  0  0  0  0
    5.0130   61.1760   70.9920 O   0  0  0  0  0  0  0  0  0  0  0  0
   -0.1460   52.9080   75.6910 O   0  0  0  0  0  0  0  0  0  0  0  0
   -1.7590   55.1750   75.8890 C   0  0  0  0  0  0  0  0  0  0  0  0
   -1.5670   54.8810   77.3660 N   0  0  0  0  0  4  0  0  0  0  0  0
   -2.8470   54.4520   78.0350 C   0  0  0  0  0  0  0  0  0  0  0  0
   -0.9400   56.0410   78.0830 C   0  0  0  0  0  0  0  0  0  0  0  0
    1.3829   64.4382   71.8947 H   0  0  0  0  0  0  0  0  0  0  0  0
    1.1277   63.8344   70.1826 H   0  0  0  0  0  0  0  0  0  0  0  0
    3.3368   59.3766   71.6059 H   0  0  0  0  0  0  0  0  0  0  0  0
    2.9168   55.0975   73.1714 H   0  0  0  0  0  0  0  0  0  0  0  0
    2.0840   53.0499   74.3030 H   0  0  0  0  0  0  0  0  0  0  0  0
   -1.6632   57.7095   74.9336 H   0  0  0  0  0  0  0  0  0  0  0  0
   -1.5703   60.0960   73.0005 H   0  0  0  0  0  0  0  0  0  0  0  0
   -0.8300   60.6108   74.4965 H   0  0  0  0  0  0  0  0  0  0  0  0
    3.8183   63.6437   68.6377 H   0  0  0  0  0  0  0  0  0  0  0  0
    4.6384   62.6026   67.4251 H   0  0  0  0  0  0  0  0  0  0  0  0
    2.8475   62.7416   67.4251 H   0  0  0  0  0  0  0  0  0  0  0  0
    2.6555   61.0755   68.9104 H   0  0  0  0  0  0  0  0  0  0  0  0
    4.4657   60.8358   68.7390 H   0  0  0  0  0  0  0  0  0  0  0  0
    5.0042   61.1814   71.9819 H   0  0  0  0  0  0  0  0  0  0  0  0
   -1.0039   52.9326   76.1844 H   0  0  0  0  0  0  0  0  0  0  0  0
   -2.2407   56.1590   75.7907 H   0  0  0  0  0  0  0  0  0  0  0  0
   -2.3755   54.3623   75.4774 H   0  0  0  0  0  0  0  0  0  0  0  0
   -0.9155   54.0854   77.4257 H   0  0  0  0  0  0  0  0  0  0  0  0
   -2.7219   54.4939   79.1271 H   0  0  0  0  0  0  0  0  0  0  0  0
   -3.6622   55.1260   77.7332 H   0  0  0  0  0  0  0  0  0  0  0  0
   -3.0914   53.4228   77.7332 H   0  0  0  0  0  0  0  0  0  0  0  0
   -1.0224   55.8885   79.1693 H   0  0  0  0  0  0  0  0  0  0  0  0
    0.1211   56.1152   77.8026 H   0  0  0  0  0  0  0  0  0  0  0  0
   -1.4592   56.9694   77.8026 H   0  0  0  0  0  0  0  0  0  0  0  0
  2  1  1  0
  3  2  2  0
  4  2  1  0
  5  4  1  0
  6  5  1  0
  7  6  2  0
  7  1  1  0
  8  7  1  0
  9  8  2  0
 10  9  1  0
 11 10  2  0
 12 11  1  0
 13 12  2  0
 14 13  1  0
 15 14  2  0
 16 15  1  0
 17 16  2  0
 17 12  1  0
 18 17  1  0
 19 18  2  0
 19 10  1  0
 20 19  1  0
 21 20  1  0
 21  9  1  0
 22 21  1  0
 22  6  1  0
 23 22  2  0
 25 24  1  0
 25  1  1  0
  1 26  1  1
 27 15  1  0
 28 16  1  0
 29 28  1  0
 30 29  1  0
 31 29  1  0
  5 32  1  0
  5 33  1  0
  8 34  1  0
 13 35  1  0
 14 36  1  0
 18 37  1  0
 20 38  1  0
 20 39  1  0
 24 40  1  0
 24 41  1  0
 24 42  1  0
 25 43  1  0
 25 44  1  0
 26 45  1  0
 27 46  1  0
 28 47  1  0
 28 48  1  0
 29 49  1  0
 30 50  1  0
 30 51  1  0
 30 52  1  0
 31 53  1  0
 31 54  1  0
 31 55  1  0
M  CHG  1  29   1
M  END
>  <score>  (2) 
-8.698

$$$$
=
     RDKit          3D

 55 59  0  0  0  0  0  0  0  0999 V2000
   -6.1510   60.5630   74.8810 C   0  0  1  0  0  0  0  0  0  0  0  0
   -6.8470   59.9810   76.1310 C   0  0  0  0  0  0  0  0  0  0  0  0
   -7.6780   60.6440   76.7540 O   0  0  0  0  0  0  0  0  0  0  0  0
   -6.5600   58.7120   76.4900 O   0  0  0  0  0  0  0  0  0  0  0  0
   -5.3570   58.0330   76.0700 C   0  0  0  0  0  0  0  0  0  0  0  0
   -4.3820   58.9020   75.3550 C   0  0  0  0  0  0  0  0  0  0  0  0
   -4.7210   60.0840   74.8070 C   0  0  0  0  0  0  0  0  0  0  0  0
   -3.7210   60.8850   74.1130 C   0  0  0  0  0  0  0  0  0  0  0  0
   -2.4660   60.4330   74.0380 C   0  0  0  0  0  0  0  0  0  0  0  0
   -1.2780   61.0150   73.4280 C   0  0  0  0  0  0  0  0  0  0  0  0
   -1.2040   62.1810   72.7800 N   0  0  0  0  0  0  0  0  0  0  0  0
    0.0020   62.5160   72.3010 C   0  0  0  0  0  0  0  0  0  0  0  0
    0.0900   63.7150   71.6150 C   0  0  0  0  0  0  0  0  0  0  0  0
    1.2910   64.1730   71.0790 C   0  0  0  0  0  0  0  0  0  0  0  0
    2.4390   63.4110   71.2390 C   0  0  0  0  0  0  0  0  0  0  0  0
    2.4150   62.1840   71.9200 C   0  0  0  0  0  0  0  0  0  0  0  0
    1.1790   61.7160   72.4610 C   0  0  0  0  0  0  0  0  0  0  0  0
    1.0270   60.4880   73.1540 C   0  0  0  0  0  0  0  0  0  0  0  0
   -0.2210   60.1440   73.6370 C   0  0  0  0  0  0  0  0  0  0  0  0
   -0.6880   58.9330   74.3870 C   0  0  0  0  0  0  0  0  0  0  0  0
   -2.1080   59.2210   74.5950 N   0  0  0  0  0  0  0  0  0  0  0  0
   -2.9770   58.3910   75.2570 C   0  0  0  0  0  0  0  0  0  0  0  0
   -2.6520   57.3110   75.7360 O   0  0  0  0  0  0  0  0  0  0  0  0
   -7.8520   61.2400   73.0610 C   0  0  0  0  0  0  0  0  0  0  0  0
   -6.9240   60.1590   73.6070 C   0  0  0  0  0  0  0  0  0  0  0  0
   -6.1470   61.9940   74.9890 O   0  0  0  0  0  0  0  0  0  0  0  0
    3.6280   63.8670   70.7470 O   0  0  0  0  0  0  0  0  0  0  0  0
    3.7050   61.4170   72.0790 C   0  0  0  0  0  0  0  0  0  0  0  0
    4.4360   61.1720   70.7720 N   0  0  0  0  0  4  0  0  0  0  0  0
    3.7640   60.1220   69.9270 C   0  0  0  0  0  0  0  0  0  0  0  0
    5.8820   60.8440   71.0000 C   0  0  0  0  0  0  0  0  0  0  0  0
   -4.8629   57.6229   76.9632 H   0  0  0  0  0  0  0  0  0  0  0  0
   -5.6667   57.2540   75.3578 H   0  0  0  0  0  0  0  0  0  0  0  0
   -3.9954   61.8479   73.6574 H   0  0  0  0  0  0  0  0  0  0  0  0
   -0.8167   64.3249   71.4893 H   0  0  0  0  0  0  0  0  0  0  0  0
    1.3288   65.1283   70.5349 H   0  0  0  0  0  0  0  0  0  0  0  0
    1.8883   59.8205   73.3045 H   0  0  0  0  0  0  0  0  0  0  0  0
   -0.5504   58.0184   73.7915 H   0  0  0  0  0  0  0  0  0  0  0  0
   -0.1344   58.7533   75.3204 H   0  0  0  0  0  0  0  0  0  0  0  0
   -8.3168   61.7814   73.8982 H   0  0  0  0  0  0  0  0  0  0  0  0
   -7.2727   61.9440   72.4456 H   0  0  0  0  0  0  0  0  0  0  0  0
   -8.6356   60.7740   72.4456 H   0  0  0  0  0  0  0  0  0  0  0  0
   -7.5302   59.2712   73.8399 H   0  0  0  0  0  0  0  0  0  0  0  0
   -6.1692   59.9721   72.8289 H   0  0  0  0  0  0  0  0  0  0  0  0
   -6.1463   62.2528   75.9446 H   0  0  0  0  0  0  0  0  0  0  0  0
    4.4499   63.3266   70.8589 H   0  0  0  0  0  0  0  0  0  0  0  0
    4.3681   61.9878   72.7457 H   0  0  0  0  0  0  0  0  0  0  0  0
    3.4432   60.4307   72.4898 H   0  0  0  0  0  0  0  0  0  0  0  0
    4.3939   62.0547   70.2429 H   0  0  0  0  0  0  0  0  0  0  0  0
    3.2867   59.3763   70.5797 H   0  0  0  0  0  0  0  0  0  0  0  0
    3.0007   60.5956   69.2920 H   0  0  0  0  0  0  0  0  0  0  0  0
    4.5137   59.6273   69.2920 H   0  0  0  0  0  0  0  0  0  0  0  0
    6.0817   60.7987   72.0808 H   0  0  0  0  0  0  0  0  0  0  0  0
    6.1136   59.8705   70.5432 H   0  0  0  0  0  0  0  0  0  0  0  0
    6.5110   61.6223   70.5432 H   0  0  0  0  0  0  0  0  0  0  0  0
  2  1  1  0
  3  2  2  0
  4  2  1  0
  5  4  1  0
  6  5  1  0
  7  6  2  0
  7  1  1  0
  8  7  1  0
  9  8  2  0
 10  9  1  0
 11 10  2  0
 12 11  1  0
 13 12  2  0
 14 13  1  0
 15 14  2  0
 16 15  1  0
 17 16  2  0
 17 12  1  0
 18 17  1  0
 19 18  2  0
 19 10  1  0
 20 19  1  0
 21 20  1  0
 21  9  1  0
 22 21  1  0
 22  6  1  0
 23 22  2  0
 25 24  1  0
 25  1  1  0
  1 26  1  1
 27 15  1  0
 28 16  1  0
 29 28  1  0
 30 29  1  0
 31 29  1  0
  5 32  1  0
  5 33  1  0
  8 34  1  0
 13 35  1  0
 14 36  1  0
 18 37  1  0
 20 38  1  0
 20 39  1  0
 24 40  1  0
 24 41  1  0
 24 42  1  0
 25 43  1  0
 25 44  1  0
 26 45  1  0
 27 46  1  0
 28 47  1  0
 28 48  1  0
 29 49  1  0
 30 50  1  0
 30 51  1  0
 30 52  1  0
 31 53  1  0
 31 54  1  0
 31 55  1  0
M  CHG  1  29   1
M  END
>  <score>  (3) 
-8.49

$$$$
=
     RDKit          3D

 55 59  0  0  0  0  0  0  0  0999 V2000
    2.3550   62.7330   70.2590 C   0  0  1  0  0  0  0  0  0  0  0  0
    3.4830   62.4280   69.2470 C   0  0  0  0  0  0  0  0  0  0  0  0
    3.3800   62.7750   68.0690 O   0  0  0  0  0  0  0  0  0  0  0  0
    4.6010   61.8220   69.6990 O   0  0  0  0  0  0  0  0  0  0  0  0
    4.6370   61.0600   70.9240 C   0  0  0  0  0  0  0  0  0  0  0  0
    3.3050   60.8540   71.5560 C   0  0  0  0  0  0  0  0  0  0  0  0
    2.2290   61.6060   71.2560 C   0  0  0  0  0  0  0  0  0  0  0  0
    0.9530   61.3590   71.9160 C   0  0  0  0  0  0  0  0  0  0  0  0
    0.8670   60.3730   72.8130 C   0  0  0  0  0  0  0  0  0  0  0  0
   -0.2610   59.9010   73.6050 C   0  0  0  0  0  0  0  0  0  0  0  0
   -1.5030   60.3920   73.5960 N   0  0  0  0  0  0  0  0  0  0  0  0
   -2.3820   59.7920   74.4110 C   0  0  0  0  0  0  0  0  0  0  0  0
   -3.6700   60.3000   74.4220 C   0  0  0  0  0  0  0  0  0  0  0  0
   -4.6720   59.7560   75.2220 C   0  0  0  0  0  0  0  0  0  0  0  0
   -4.3770   58.6680   76.0300 C   0  0  0  0  0  0  0  0  0  0  0  0
   -3.0890   58.1100   76.0690 C   0  0  0  0  0  0  0  0  0  0  0  0
   -2.0640   58.6780   75.2520 C   0  0  0  0  0  0  0  0  0  0  0  0
   -0.7260   58.2110   75.2160 C   0  0  0  0  0  0  0  0  0  0  0  0
    0.1770   58.8390   74.3800 C   0  0  0  0  0  0  0  0  0  0  0  0
    1.6350   58.5850   74.1350 C   0  0  0  0  0  0  0  0  0  0  0  0
    1.9640   59.5960   73.1290 N   0  0  0  0  0  0  0  0  0  0  0  0
    3.2080   59.7570   72.5730 C   0  0  0  0  0  0  0  0  0  0  0  0
    4.1790   59.0720   72.8720 O   0  0  0  0  0  0  0  0  0  0  0  0
    1.8640   65.2600   70.4320 C   0  0  0  0  0  0  0  0  0  0  0  0
    2.6380   64.0670   70.9820 C   0  0  0  0  0  0  0  0  0  0  0  0
    1.1190   62.8450   69.5400 O   0  0  0  0  0  0  0  0  0  0  0  0
   -5.3600   58.1060   76.7930 O   0  0  0  0  0  0  0  0  0  0  0  0
   -2.8430   56.9120   76.9530 C   0  0  0  0  0  0  0  0  0  0  0  0
   -3.5420   55.6500   76.4800 N   0  0  0  0  0  4  0  0  0  0  0  0
   -3.8630   54.7140   77.6150 C   0  0  0  0  0  0  0  0  0  0  0  0
   -2.7580   54.9540   75.4060 C   0  0  0  0  0  0  0  0  0  0  0  0
    5.0701   60.0732   70.7034 H   0  0  0  0  0  0  0  0  0  0  0  0
    5.2387   61.6405   71.6388 H   0  0  0  0  0  0  0  0  0  0  0  0
    0.0736   61.9757   71.6788 H   0  0  0  0  0  0  0  0  0  0  0  0
   -3.9093   61.1598   73.7790 H   0  0  0  0  0  0  0  0  0  0  0  0
   -5.6852   60.1842   75.2131 H   0  0  0  0  0  0  0  0  0  0  0  0
   -0.4122   57.3633   75.8428 H   0  0  0  0  0  0  0  0  0  0  0  0
    2.2241   58.7298   75.0526 H   0  0  0  0  0  0  0  0  0  0  0  0
    1.8545   57.5563   73.8132 H   0  0  0  0  0  0  0  0  0  0  0  0
    1.4743   65.8607   71.2670 H   0  0  0  0  0  0  0  0  0  0  0  0
    2.5331   65.8788   69.8161 H   0  0  0  0  0  0  0  0  0  0  0  0
    1.0262   64.9011   69.8161 H   0  0  0  0  0  0  0  0  0  0  0  0
    3.7127   64.2844   70.8940 H   0  0  0  0  0  0  0  0  0  0  0  0
    2.3103   63.9343   72.0236 H   0  0  0  0  0  0  0  0  0  0  0  0
    0.3686   62.9130   70.1822 H   0  0  0  0  0  0  0  0  0  0  0  0
   -5.1545   57.3293   77.3714 H   0  0  0  0  0  0  0  0  0  0  0  0
   -1.7605   56.7189   76.9827 H   0  0  0  0  0  0  0  0  0  0  0  0
   -3.2538   57.1544   77.9442 H   0  0  0  0  0  0  0  0  0  0  0  0
   -4.4400   55.9465   76.0719 H   0  0  0  0  0  0  0  0  0  0  0  0
   -3.6876   55.2255   78.5729 H   0  0  0  0  0  0  0  0  0  0  0  0
   -4.9175   54.4077   77.5506 H   0  0  0  0  0  0  0  0  0  0  0  0
   -3.2184   53.8250   77.5506 H   0  0  0  0  0  0  0  0  0  0  0  0
   -2.0115   54.2913   75.8680 H   0  0  0  0  0  0  0  0  0  0  0  0
   -3.4402   54.3587   74.7814 H   0  0  0  0  0  0  0  0  0  0  0  0
   -2.2477   55.7020   74.7814 H   0  0  0  0  0  0  0  0  0  0  0  0
  2  1  1  0
  3  2  2  0
  4  2  1  0
  5  4  1  0
  6  5  1  0
  7  6  2  0
  7  1  1  0
  8  7  1  0
  9  8  2  0
 10  9  1  0
 11 10  2  0
 12 11  1  0
 13 12  2  0
 14 13  1  0
 15 14  2  0
 16 15  1  0
 17 16  2  0
 17 12  1  0
 18 17  1  0
 19 18  2  0
 19 10  1  0
 20 19  1  0
 21 20  1  0
 21  9  1  0
 22 21  1  0
 22  6  1  0
 23 22  2  0
 25 24  1  0
 25  1  1  0
  1 26  1  6
 27 15  1  0
 28 16  1  0
 29 28  1  0
 30 29  1  0
 31 29  1  0
  5 32  1  0
  5 33  1  0
  8 34  1  0
 13 35  1  0
 14 36  1  0
 18 37  1  0
 20 38  1  0
 20 39  1  0
 24 40  1  0
 24 41  1  0
 24 42  1  0
 25 43  1  0
 25 44  1  0
 26 45  1  0
 27 46  1  0
 28 47  1  0
 28 48  1  0
 29 49  1  0
 30 50  1  0
 30 51  1  0
 30 52  1  0
 31 53  1  0
 31 54  1  0
 31 55  1  0
M  CHG  1  29   1
M  END
>  <score>  (4) 
-8.359

$$$$
=
     RDKit          3D

 55 59  0  0  0  0  0  0  0  0999 V2000
    0.9070   62.4010   71.9510 C   0  0  1  0  0  0  0  0  0  0  0  0
    1.6800   62.6270   70.6320 C   0  0  0  0  0  0  0  0  0  0  0  0
    1.2660   63.4250   69.7900 O   0  0  0  0  0  0  0  0  0  0  0  0
    2.8460   61.9700   70.4540 O   0  0  0  0  0  0  0  0  0  0  0  0
    3.1870   60.7720   71.1830 C   0  0  0  0  0  0  0  0  0  0  0  0
    2.0820   60.2260   72.0160 C   0  0  0  0  0  0  0  0  0  0  0  0
    1.0080   60.9550   72.3740 C   0  0  0  0  0  0  0  0  0  0  0  0
   -0.0390   60.3640   73.2000 C   0  0  0  0  0  0  0  0  0  0  0  0
    0.0800   59.0910   73.5850 C   0  0  0  0  0  0  0  0  0  0  0  0
   -0.7990   58.2520   74.3870 C   0  0  0  0  0  0  0  0  0  0  0  0
   -1.9640   58.6110   74.9340 N   0  0  0  0  0  0  0  0  0  0  0  0
   -2.6050   57.6650   75.6340 C   0  0  0  0  0  0  0  0  0  0  0  0
   -3.8070   58.0280   76.2180 C   0  0  0  0  0  0  0  0  0  0  0  0
   -4.5680   57.1290   76.9620 C   0  0  0  0  0  0  0  0  0  0  0  0
   -4.1150   55.8280   77.1210 C   0  0  0  0  0  0  0  0  0  0  0  0
   -2.9020   55.3990   76.5590 C   0  0  0  0  0  0  0  0  0  0  0  0
   -2.1230   56.3270   75.8040 C   0  0  0  0  0  0  0  0  0  0  0  0
   -0.8780   56.0160   75.2000 C   0  0  0  0  0  0  0  0  0  0  0  0
   -0.2170   56.9980   74.4880 C   0  0  0  0  0  0  0  0  0  0  0  0
    1.0930   56.9750   73.7600 C   0  0  0  0  0  0  0  0  0  0  0  0
    1.1780   58.3340   73.2240 N   0  0  0  0  0  0  0  0  0  0  0  0
    2.2180   58.8020   72.4610 C   0  0  0  0  0  0  0  0  0  0  0  0
    3.1950   58.1250   72.1590 O   0  0  0  0  0  0  0  0  0  0  0  0
    0.3860   63.9740   73.9290 C   0  0  0  0  0  0  0  0  0  0  0  0
    1.4570   63.3280   73.0550 C   0  0  0  0  0  0  0  0  0  0  0  0
   -0.4750   62.7130   71.7240 O   0  0  0  0  0  0  0  0  0  0  0  0
   -4.8690   54.9290   77.8210 O   0  0  0  0  0  0  0  0  0  0  0  0
   -2.4810   53.9630   76.7500 C   0  0  0  0  0  0  0  0  0  0  0  0
   -3.1650   52.9930   75.8040 N   0  0  0  0  0  4  0  0  0  0  0  0
   -4.0430   52.0070   76.5300 C   0  0  0  0  0  0  0  0  0  0  0  0
   -2.1760   52.2930   74.9190 C   0  0  0  0  0  0  0  0  0  0  0  0
    3.4850   60.0006   70.4577 H   0  0  0  0  0  0  0  0  0  0  0  0
    3.9975   61.0447   71.8749 H   0  0  0  0  0  0  0  0  0  0  0  0
   -0.9140   60.9585   73.5014 H   0  0  0  0  0  0  0  0  0  0  0  0
   -4.1721   59.0578   76.0905 H   0  0  0  0  0  0  0  0  0  0  0  0
   -5.5171   57.4474   77.4180 H   0  0  0  0  0  0  0  0  0  0  0  0
   -0.4458   55.0091   75.2970 H   0  0  0  0  0  0  0  0  0  0  0  0
    1.9263   56.7651   74.4467 H   0  0  0  0  0  0  0  0  0  0  0  0
    1.1535   56.1934   72.9883 H   0  0  0  0  0  0  0  0  0  0  0  0
    0.6373   63.8224   74.9891 H   0  0  0  0  0  0  0  0  0  0  0  0
    0.3382   65.0517   73.7140 H   0  0  0  0  0  0  0  0  0  0  0  0
   -0.5896   63.5136   73.7140 H   0  0  0  0  0  0  0  0  0  0  0  0
    2.0372   64.1291   72.5737 H   0  0  0  0  0  0  0  0  0  0  0  0
    2.0652   62.6970   73.7197 H   0  0  0  0  0  0  0  0  0  0  0  0
   -0.9369   62.8173   72.5934 H   0  0  0  0  0  0  0  0  0  0  0  0
   -4.5496   53.9992   77.9370 H   0  0  0  0  0  0  0  0  0  0  0  0
   -1.3948   53.8958   76.5899 H   0  0  0  0  0  0  0  0  0  0  0  0
   -2.7747   53.6761   77.7705 H   0  0  0  0  0  0  0  0  0  0  0  0
   -3.7815   53.5566   75.2013 H   0  0  0  0  0  0  0  0  0  0  0  0
   -3.9243   52.1403   77.6154 H   0  0  0  0  0  0  0  0  0  0  0  0
   -5.0936   52.1777   76.2523 H   0  0  0  0  0  0  0  0  0  0  0  0
   -3.7521   50.9832   76.2523 H   0  0  0  0  0  0  0  0  0  0  0  0
   -1.4350   51.7686   75.5402 H   0  0  0  0  0  0  0  0  0  0  0  0
   -2.7028   51.5655   74.2840 H   0  0  0  0  0  0  0  0  0  0  0  0
   -1.6651   53.0317   74.2840 H   0  0  0  0  0  0  0  0  0  0  0  0
  2  1  1  0
  3  2  2  0
  4  2  1  0
  5  4  1  0
  6  5  1  0
  7  6  2  0
  7  1  1  0
  8  7  1  0
  9  8  2  0
 10  9  1  0
 11 10  2  0
 12 11  1  0
 13 12  2  0
 14 13  1  0
 15 14  2  0
 16 15  1  0
 17 16  2  0
 17 12  1  0
 18 17  1  0
 19 18  2  0
 19 10  1  0
 20 19  1  0
 21 20  1  0
 21  9  1  0
 22 21  1  0
 22  6  1  0
 23 22  2  0
 25 24  1  0
 25  1  1  0
  1 26  1  6
 27 15  1  0
 28 16  1  0
 29 28  1  0
 30 29  1  0
 31 29  1  0
  5 32  1  0
  5 33  1  0
  8 34  1  0
 13 35  1  0
 14 36  1  0
 18 37  1  0
 20 38  1  0
 20 39  1  0
 24 40  1  0
 24 41  1  0
 24 42  1  0
 25 43  1  0
 25 44  1  0
 26 45  1  0
 27 46  1  0
 28 47  1  0
 28 48  1  0
 29 49  1  0
 30 50  1  0
 30 51  1  0
 30 52  1  0
 31 53  1  0
 31 54  1  0
 31 55  1  0
M  CHG  1  29   1
M  END
>  <score>  (5) 
-7.718

$$$$
=
     RDKit          3D

 55 59  0  0  0  0  0  0  0  0999 V2000
    0.8220   62.5270   72.0830 C   0  0  1  0  0  0  0  0  0  0  0  0
    1.4400   63.0300   70.7590 C   0  0  0  0  0  0  0  0  0  0  0  0
    0.8620   63.8810   70.0800 O   0  0  0  0  0  0  0  0  0  0  0  0
    2.6500   62.5540   70.3960 O   0  0  0  0  0  0  0  0  0  0  0  0
    3.1880   61.3170   70.9070 C   0  0  0  0  0  0  0  0  0  0  0  0
    2.2330   60.5260   71.7300 C   0  0  0  0  0  0  0  0  0  0  0  0
    1.1220   61.0600   72.2750 C   0  0  0  0  0  0  0  0  0  0  0  0
    0.2300   60.2330   73.0780 C   0  0  0  0  0  0  0  0  0  0  0  0
    0.5250   58.9430   73.2570 C   0  0  0  0  0  0  0  0  0  0  0  0
   -0.1770   57.8970   73.9880 C   0  0  0  0  0  0  0  0  0  0  0  0
   -1.3180   58.0290   74.6700 N   0  0  0  0  0  0  0  0  0  0  0  0
   -1.7830   56.9220   75.2660 C   0  0  0  0  0  0  0  0  0  0  0  0
   -2.9570   57.0470   75.9870 C   0  0  0  0  0  0  0  0  0  0  0  0
   -3.5410   55.9650   76.6420 C   0  0  0  0  0  0  0  0  0  0  0  0
   -2.9330   54.7210   76.5690 C   0  0  0  0  0  0  0  0  0  0  0  0
   -1.7380   54.5290   75.8570 C   0  0  0  0  0  0  0  0  0  0  0  0
   -1.1410   55.6430   75.1940 C   0  0  0  0  0  0  0  0  0  0  0  0
    0.0700   55.5770   74.4580 C   0  0  0  0  0  0  0  0  0  0  0  0
    0.5480   56.7230   73.8540 C   0  0  0  0  0  0  0  0  0  0  0  0
    1.7790   56.9650   73.0340 C   0  0  0  0  0  0  0  0  0  0  0  0
    1.6620   58.3860   72.7030 N   0  0  0  0  0  0  0  0  0  0  0  0
    2.5680   59.0820   71.9430 C   0  0  0  0  0  0  0  0  0  0  0  0
    3.5810   58.5810   71.4690 O   0  0  0  0  0  0  0  0  0  0  0  0
    0.2910   63.9180   74.1900 C   0  0  0  0  0  0  0  0  0  0  0  0
    1.3670   63.3500   73.2690 C   0  0  0  0  0  0  0  0  0  0  0  0
   -0.6000   62.6940   72.0120 O   0  0  0  0  0  0  0  0  0  0  0  0
   -3.5150   53.6470   77.1800 O   0  0  0  0  0  0  0  0  0  0  0  0
   -1.1440   53.1430   75.7980 C   0  0  0  0  0  0  0  0  0  0  0  0
   -0.3050   52.7850   77.0110 N   0  0  0  0  0  4  0  0  0  0  0  0
   -1.0240   51.8490   77.9470 C   0  0  0  0  0  0  0  0  0  0  0  0
    0.1770   54.0100   77.7310 C   0  0  0  0  0  0  0  0  0  0  0  0
    3.5005   60.6986   70.0527 H   0  0  0  0  0  0  0  0  0  0  0  0
    4.0242   61.5873   71.5685 H   0  0  0  0  0  0  0  0  0  0  0  0
   -0.6743   60.6658   73.5306 H   0  0  0  0  0  0  0  0  0  0  0  0
   -3.4446   58.0313   76.0449 H   0  0  0  0  0  0  0  0  0  0  0  0
   -4.4736   56.0960   77.2105 H   0  0  0  0  0  0  0  0  0  0  0  0
    0.6194   54.6281   74.3699 H   0  0  0  0  0  0  0  0  0  0  0  0
    2.6906   56.7658   73.6165 H   0  0  0  0  0  0  0  0  0  0  0  0
    1.8543   56.3129   72.1513 H   0  0  0  0  0  0  0  0  0  0  0  0
    0.5860   63.7623   75.2382 H   0  0  0  0  0  0  0  0  0  0  0  0
    0.1750   64.9949   73.9978 H   0  0  0  0  0  0  0  0  0  0  0  0
   -0.6636   63.4063   73.9978 H   0  0  0  0  0  0  0  0  0  0  0  0
    1.9522   64.1893   72.8652 H   0  0  0  0  0  0  0  0  0  0  0  0
    1.9698   62.6607   73.8785 H   0  0  0  0  0  0  0  0  0  0  0  0
   -0.9733   62.7378   72.9279 H   0  0  0  0  0  0  0  0  0  0  0  0
   -3.0850   52.7566   77.1309 H   0  0  0  0  0  0  0  0  0  0  0  0
   -1.9659   52.4164   75.7179 H   0  0  0  0  0  0  0  0  0  0  0  0
   -0.4741   53.1180   74.9259 H   0  0  0  0  0  0  0  0  0  0  0  0
    0.5220   52.2822   76.6587 H   0  0  0  0  0  0  0  0  0  0  0  0
   -0.8065   52.1322   78.9874 H   0  0  0  0  0  0  0  0  0  0  0  0
   -2.1076   51.9128   77.7685 H   0  0  0  0  0  0  0  0  0  0  0  0
   -0.6830   50.8185   77.7685 H   0  0  0  0  0  0  0  0  0  0  0  0
    0.1126   53.8463   78.8168 H   0  0  0  0  0  0  0  0  0  0  0  0
    1.2217   54.2121   77.4520 H   0  0  0  0  0  0  0  0  0  0  0  0
   -0.4499   54.8698   77.4520 H   0  0  0  0  0  0  0  0  0  0  0  0
  2  1  1  0
  3  2  2  0
  4  2  1  0
  5  4  1  0
  6  5  1  0
  7  6  2  0
  7  1  1  0
  8  7  1  0
  9  8  2  0
 10  9  1  0
 11 10  2  0
 12 11  1  0
 13 12  2  0
 14 13  1  0
 15 14  2  0
 16 15  1  0
 17 16  2  0
 17 12  1  0
 18 17  1  0
 19 18  2  0
 19 10  1  0
 20 19  1  0
 21 20  1  0
 21  9  1  0
 22 21  1  0
 22  6  1  0
 23 22  2  0
 25 24  1  0
 25  1  1  0
  1 26  1  6
 27 15  1  0
 28 16  1  0
 29 28  1  0
 30 29  1  0
 31 29  1  0
  5 32  1  0
  5 33  1  0
  8 34  1  0
 13 35  1  0
 14 36  1  0
 18 37  1  0
 20 38  1  0
 20 39  1  0
 24 40  1  0
 24 41  1  0
 24 42  1  0
 25 43  1  0
 25 44  1  0
 26 45  1  0
 27 46  1  0
 28 47  1  0
 28 48  1  0
 29 49  1  0
 30 50  1  0
 30 51  1  0
 30 52  1  0
 31 53  1  0
 31 54  1  0
 31 55  1  0
M  CHG  1  29   1
M  END
>  <score>  (6) 
-7.39

$$$$
=
     RDKit          3D

 55 59  0  0  0  0  0  0  0  0999 V2000
    2.8860   61.2680   71.1990 C   0  0  1  0  0  0  0  0  0  0  0  0
    3.6700   60.5830   70.0570 C   0  0  0  0  0  0  0  0  0  0  0  0
    3.8850   61.1750   68.9980 O   0  0  0  0  0  0  0  0  0  0  0  0
    4.1590   59.3430   70.2720 O   0  0  0  0  0  0  0  0  0  0  0  0
    3.6370   58.4620   71.2900 C   0  0  0  0  0  0  0  0  0  0  0  0
    2.4100   58.9650   71.9650 C   0  0  0  0  0  0  0  0  0  0  0  0
    2.0320   60.2580   71.9260 C   0  0  0  0  0  0  0  0  0  0  0  0
    0.8220   60.6890   72.6150 C   0  0  0  0  0  0  0  0  0  0  0  0
    0.0920   59.7840   73.2740 C   0  0  0  0  0  0  0  0  0  0  0  0
   -1.1450   59.9250   74.0280 C   0  0  0  0  0  0  0  0  0  0  0  0
   -1.8340   61.0520   74.2280 N   0  0  0  0  0  0  0  0  0  0  0  0
   -2.9530   60.9400   74.9570 C   0  0  0  0  0  0  0  0  0  0  0  0
   -3.6690   62.1030   75.1840 C   0  0  0  0  0  0  0  0  0  0  0  0
   -4.8520   62.1100   75.9200 C   0  0  0  0  0  0  0  0  0  0  0  0
   -5.3340   60.9180   76.4390 C   0  0  0  0  0  0  0  0  0  0  0  0
   -4.6520   59.7060   76.2490 C   0  0  0  0  0  0  0  0  0  0  0  0
   -3.4360   59.7060   75.5000 C   0  0  0  0  0  0  0  0  0  0  0  0
   -2.6530   58.5500   75.2540 C   0  0  0  0  0  0  0  0  0  0  0  0
   -1.4960   58.6740   74.5090 C   0  0  0  0  0  0  0  0  0  0  0  0
   -0.4750   57.6560   74.0980 C   0  0  0  0  0  0  0  0  0  0  0  0
    0.4710   58.4570   73.3200 N   0  0  0  0  0  0  0  0  0  0  0  0
    1.5960   57.9560   72.7150 C   0  0  0  0  0  0  0  0  0  0  0  0
    1.9300   56.7780   72.7750 O   0  0  0  0  0  0  0  0  0  0  0  0
    4.9190   61.0270   72.7700 C   0  0  0  0  0  0  0  0  0  0  0  0
    3.8630   61.9550   72.1760 C   0  0  0  0  0  0  0  0  0  0  0  0
    2.0250   62.2610   70.6240 O   0  0  0  0  0  0  0  0  0  0  0  0
   -6.5100   60.9090   77.1340 O   0  0  0  0  0  0  0  0  0  0  0  0
   -5.2450   58.4420   76.8210 C   0  0  0  0  0  0  0  0  0  0  0  0
   -6.5990   58.0820   76.2360 N   0  0  0  0  0  4  0  0  0  0  0  0
   -7.2870   56.9910   77.0130 C   0  0  0  0  0  0  0  0  0  0  0  0
   -6.4960   57.7320   74.7810 C   0  0  0  0  0  0  0  0  0  0  0  0
    3.4005   57.4956   70.8209 H   0  0  0  0  0  0  0  0  0  0  0  0
    4.4129   58.3824   72.0656 H   0  0  0  0  0  0  0  0  0  0  0  0
    0.5139   61.7447   72.5929 H   0  0  0  0  0  0  0  0  0  0  0  0
   -3.2925   63.0503   74.7707 H   0  0  0  0  0  0  0  0  0  0  0  0
   -5.3974   63.0505   76.0874 H   0  0  0  0  0  0  0  0  0  0  0  0
   -2.9614   57.5710   75.6495 H   0  0  0  0  0  0  0  0  0  0  0  0
    0.0124   57.2047   74.9748 H   0  0  0  0  0  0  0  0  0  0  0  0
   -0.8988   56.8093   73.5381 H   0  0  0  0  0  0  0  0  0  0  0  0
    4.8695   61.0705   73.8680 H   0  0  0  0  0  0  0  0  0  0  0  0
    4.7314   59.9962   72.4351 H   0  0  0  0  0  0  0  0  0  0  0  0
    5.9172   61.3455   72.4351 H   0  0  0  0  0  0  0  0  0  0  0  0
    3.2777   62.3837   73.0028 H   0  0  0  0  0  0  0  0  0  0  0  0
    4.4052   62.7151   71.5944 H   0  0  0  0  0  0  0  0  0  0  0  0
    1.5819   62.7721   71.3469 H   0  0  0  0  0  0  0  0  0  0  0  0
   -6.8583   60.0605   77.5065 H   0  0  0  0  0  0  0  0  0  0  0  0
   -4.5501   57.6125   76.6236 H   0  0  0  0  0  0  0  0  0  0  0  0
   -5.3965   58.6169   77.8964 H   0  0  0  0  0  0  0  0  0  0  0  0
   -7.1871   58.9238   76.3162 H   0  0  0  0  0  0  0  0  0  0  0  0
   -7.1691   57.1780   78.0906 H   0  0  0  0  0  0  0  0  0  0  0  0
   -8.3570   56.9781   76.7580 H   0  0  0  0  0  0  0  0  0  0  0  0
   -6.8376   56.0199   76.7580 H   0  0  0  0  0  0  0  0  0  0  0  0
   -6.1868   56.6814   74.6776 H   0  0  0  0  0  0  0  0  0  0  0  0
   -7.4744   57.8754   74.2992 H   0  0  0  0  0  0  0  0  0  0  0  0
   -5.7512   58.3825   74.2992 H   0  0  0  0  0  0  0  0  0  0  0  0
  2  1  1  0
  3  2  2  0
  4  2  1  0
  5  4  1  0
  6  5  1  0
  7  6  2  0
  7  1  1  0
  8  7  1  0
  9  8  2  0
 10  9  1  0
 11 10  2  0
 12 11  1  0
 13 12  2  0
 14 13  1  0
 15 14  2  0
 16 15  1  0
 17 16  2  0
 17 12  1  0
 18 17  1  0
 19 18  2  0
 19 10  1  0
 20 19  1  0
 21 20  1  0
 21  9  1  0
 22 21  1  0
 22  6  1  0
 23 22  2  0
 25 24  1  0
 25  1  1  0
  1 26  1  6
 27 15  1  0
 28 16  1  0
 29 28  1  0
 30 29  1  0
 31 29  1  0
  5 32  1  0
  5 33  1  0
  8 34  1  0
 13 35  1  0
 14 36  1  0
 18 37  1  0
 20 38  1  0
 20 39  1  0
 24 40  1  0
 24 41  1  0
 24 42  1  0
 25 43  1  0
 25 44  1  0
 26 45  1  0
 27 46  1  0
 28 47  1  0
 28 48  1  0
 29 49  1  0
 30 50  1  0
 30 51  1  0
 30 52  1  0
 31 53  1  0
 31 54  1  0
 31 55  1  0
M  CHG  1  29   1
M  END
>  <score>  (7) 
-7.092

$$$$
=
     RDKit          3D

 55 59  0  0  0  0  0  0  0  0999 V2000
    2.3370   58.8620   73.1820 C   0  0  1  0  0  0  0  0  0  0  0  0
    3.3730   59.9760   72.9140 C   0  0  0  0  0  0  0  0  0  0  0  0
    4.5190   59.8900   73.3600 O   0  0  0  0  0  0  0  0  0  0  0  0
    3.0070   61.0170   72.1360 O   0  0  0  0  0  0  0  0  0  0  0  0
    1.6280   61.3780   71.9120 C   0  0  0  0  0  0  0  0  0  0  0  0
    0.6530   60.6190   72.7430 C   0  0  0  0  0  0  0  0  0  0  0  0
    0.9610   59.4580   73.3530 C   0  0  0  0  0  0  0  0  0  0  0  0
   -0.0420   58.7590   74.1470 C   0  0  0  0  0  0  0  0  0  0  0  0
   -1.2610   59.2900   74.2670 C   0  0  0  0  0  0  0  0  0  0  0  0
   -2.4350   58.8270   74.9930 C   0  0  0  0  0  0  0  0  0  0  0  0
   -2.5350   57.7110   75.7210 N   0  0  0  0  0  0  0  0  0  0  0  0
   -3.7200   57.4890   76.3050 C   0  0  0  0  0  0  0  0  0  0  0  0
   -3.8410   56.3290   77.0510 C   0  0  0  0  0  0  0  0  0  0  0  0
   -5.0210   55.9940   77.7110 C   0  0  0  0  0  0  0  0  0  0  0  0
   -6.1100   56.8480   77.6250 C   0  0  0  0  0  0  0  0  0  0  0  0
   -6.0540   58.0370   76.8810 C   0  0  0  0  0  0  0  0  0  0  0  0
   -4.8440   58.3710   76.2000 C   0  0  0  0  0  0  0  0  0  0  0  0
   -4.6700   59.5340   75.4080 C   0  0  0  0  0  0  0  0  0  0  0  0
   -3.4490   59.7530   74.8010 C   0  0  0  0  0  0  0  0  0  0  0  0
   -2.9740   60.8640   73.9140 C   0  0  0  0  0  0  0  0  0  0  0  0
   -1.5870   60.4790   73.6440 N   0  0  0  0  0  0  0  0  0  0  0  0
   -0.7200   61.2050   72.8680 C   0  0  0  0  0  0  0  0  0  0  0  0
   -1.0240   62.2520   72.3080 O   0  0  0  0  0  0  0  0  0  0  0  0
    3.4180   58.0900   70.9690 C   0  0  0  0  0  0  0  0  0  0  0  0
    2.3450   57.8410   72.0250 C   0  0  0  0  0  0  0  0  0  0  0  0
    2.6970   58.1920   74.3980 O   0  0  0  0  0  0  0  0  0  0  0  0
   -7.2610   56.5470   78.2960 O   0  0  0  0  0  0  0  0  0  0  0  0
   -7.2680   58.9330   76.8500 C   0  0  0  0  0  0  0  0  0  0  0  0
   -7.5820   59.5820   78.1860 N   0  0  0  0  0  4  0  0  0  0  0  0
   -9.0480   59.8900   78.3420 C   0  0  0  0  0  0  0  0  0  0  0  0
   -6.7420   60.8040   78.4180 C   0  0  0  0  0  0  0  0  0  0  0  0
    1.5115   62.4486   72.1359 H   0  0  0  0  0  0  0  0  0  0  0  0
    1.4049   61.1338   70.8629 H   0  0  0  0  0  0  0  0  0  0  0  0
    0.2023   57.8068   74.6406 H   0  0  0  0  0  0  0  0  0  0  0  0
   -2.9782   55.6506   77.1248 H   0  0  0  0  0  0  0  0  0  0  0  0
   -5.0881   55.0632   78.2934 H   0  0  0  0  0  0  0  0  0  0  0  0
   -5.4945   60.2506   75.2790 H   0  0  0  0  0  0  0  0  0  0  0  0
   -3.5620   60.9111   72.9855 H   0  0  0  0  0  0  0  0  0  0  0  0
   -3.0732   61.8614   74.3671 H   0  0  0  0  0  0  0  0  0  0  0  0
    4.3750   58.3121   71.4639 H   0  0  0  0  0  0  0  0  0  0  0  0
    3.5293   57.1938   70.3409 H   0  0  0  0  0  0  0  0  0  0  0  0
    3.1232   58.9436   70.3409 H   0  0  0  0  0  0  0  0  0  0  0  0
    1.3627   57.8737   71.5311 H   0  0  0  0  0  0  0  0  0  0  0  0
    2.5685   56.8617   72.4734 H   0  0  0  0  0  0  0  0  0  0  0  0
    2.4053   58.7349   75.1727 H   0  0  0  0  0  0  0  0  0  0  0  0
   -8.0411   57.1537   78.2376 H   0  0  0  0  0  0  0  0  0  0  0  0
   -7.0939   59.7281   76.1101 H   0  0  0  0  0  0  0  0  0  0  0  0
   -8.1287   58.2991   76.5904 H   0  0  0  0  0  0  0  0  0  0  0  0
   -7.3406   58.8921   78.9117 H   0  0  0  0  0  0  0  0  0  0  0  0
   -9.2998   59.9429   79.4115 H   0  0  0  0  0  0  0  0  0  0  0  0
   -9.2728   60.8550   77.8642 H   0  0  0  0  0  0  0  0  0  0  0  0
   -9.6421   59.0971   77.8642 H   0  0  0  0  0  0  0  0  0  0  0  0
   -6.6276   60.9704   79.4993 H   0  0  0  0  0  0  0  0  0  0  0  0
   -5.7512   60.6598   77.9624 H   0  0  0  0  0  0  0  0  0  0  0  0
   -7.2315   61.6774   77.9624 H   0  0  0  0  0  0  0  0  0  0  0  0
  2  1  1  0
  3  2  2  0
  4  2  1  0
  5  4  1  0
  6  5  1  0
  7  6  2  0
  7  1  1  0
  8  7  1  0
  9  8  2  0
 10  9  1  0
 11 10  2  0
 12 11  1  0
 13 12  2  0
 14 13  1  0
 15 14  2  0
 16 15  1  0
 17 16  2  0
 17 12  1  0
 18 17  1  0
 19 18  2  0
 19 10  1  0
 20 19  1  0
 21 20  1  0
 21  9  1  0
 22 21  1  0
 22  6  1  0
 23 22  2  0
 25 24  1  0
 25  1  1  0
  1 26  1  1
 27 15  1  0
 28 16  1  0
 29 28  1  0
 30 29  1  0
 31 29  1  0
  5 32  1  0
  5 33  1  0
  8 34  1  0
 13 35  1  0
 14 36  1  0
 18 37  1  0
 20 38  1  0
 20 39  1  0
 24 40  1  0
 24 41  1  0
 24 42  1  0
 25 43  1  0
 25 44  1  0
 26 45  1  0
 27 46  1  0
 28 47  1  0
 28 48  1  0
 29 49  1  0
 30 50  1  0
 30 51  1  0
 30 52  1  0
 31 53  1  0
 31 54  1  0
 31 55  1  0
M  CHG  1  29   1
M  END
>  <score>  (8) 
-6.571

$$$$
=
     RDKit          3D

 55 59  0  0  0  0  0  0  0  0999 V2000
    1.9480   57.3020   75.0480 C   0  0  1  0  0  0  0  0  0  0  0  0
    3.3880   57.8560   75.1380 C   0  0  0  0  0  0  0  0  0  0  0  0
    4.1550   57.4720   76.0220 O   0  0  0  0  0  0  0  0  0  0  0  0
    3.7970   58.7290   74.1920 O   0  0  0  0  0  0  0  0  0  0  0  0
    2.8780   59.5000   73.3900 C   0  0  0  0  0  0  0  0  0  0  0  0
    1.4540   59.3830   73.8060 C   0  0  0  0  0  0  0  0  0  0  0  0
    1.0000   58.3830   74.5850 C   0  0  0  0  0  0  0  0  0  0  0  0
   -0.4090   58.3200   74.9520 C   0  0  0  0  0  0  0  0  0  0  0  0
   -1.2370   59.2720   74.5130 C   0  0  0  0  0  0  0  0  0  0  0  0
   -2.6640   59.4670   74.7270 C   0  0  0  0  0  0  0  0  0  0  0  0
   -3.4780   58.6840   75.4410 N   0  0  0  0  0  0  0  0  0  0  0  0
   -4.7620   59.0640   75.5010 C   0  0  0  0  0  0  0  0  0  0  0  0
   -5.6190   58.2540   76.2260 C   0  0  0  0  0  0  0  0  0  0  0  0
   -6.9730   58.5500   76.3670 C   0  0  0  0  0  0  0  0  0  0  0  0
   -7.4820   59.6920   75.7680 C   0  0  0  0  0  0  0  0  0  0  0  0
   -6.6670   60.5520   75.0150 C   0  0  0  0  0  0  0  0  0  0  0  0
   -5.2810   60.2390   74.8680 C   0  0  0  0  0  0  0  0  0  0  0  0
   -4.3630   61.0210   74.1220 C   0  0  0  0  0  0  0  0  0  0  0  0
   -3.0430   60.6200   74.0570 C   0  0  0  0  0  0  0  0  0  0  0  0
   -1.8630   61.2200   73.3530 C   0  0  0  0  0  0  0  0  0  0  0  0
   -0.7820   60.3020   73.7130 N   0  0  0  0  0  0  0  0  0  0  0  0
    0.5200   60.4420   73.3040 C   0  0  0  0  0  0  0  0  0  0  0  0
    0.9100   61.3520   72.5820 O   0  0  0  0  0  0  0  0  0  0  0  0
    2.2000   54.7520   74.7480 C   0  0  0  0  0  0  0  0  0  0  0  0
    1.9030   56.0950   74.0880 C   0  0  0  0  0  0  0  0  0  0  0  0
    1.5450   56.8740   76.3570 O   0  0  0  0  0  0  0  0  0  0  0  0
   -8.8010   60.0100   75.9270 O   0  0  0  0  0  0  0  0  0  0  0  0
   -7.2810   61.7910   74.4110 C   0  0  0  0  0  0  0  0  0  0  0  0
   -7.6080   62.8690   75.4280 N   0  0  0  0  0  4  0  0  0  0  0  0
   -8.8860   63.5960   75.1010 C   0  0  0  0  0  0  0  0  0  0  0  0
   -6.4670   63.8280   75.6040 C   0  0  0  0  0  0  0  0  0  0  0  0
    3.1696   60.5587   73.4541 H   0  0  0  0  0  0  0  0  0  0  0  0
    2.9409   59.1000   72.3673 H   0  0  0  0  0  0  0  0  0  0  0  0
   -0.7853   57.5002   75.5815 H   0  0  0  0  0  0  0  0  0  0  0  0
   -5.2185   57.3487   76.7056 H   0  0  0  0  0  0  0  0  0  0  0  0
   -7.6305   57.8855   76.9468 H   0  0  0  0  0  0  0  0  0  0  0  0
   -4.6967   61.9320   73.6036 H   0  0  0  0  0  0  0  0  0  0  0  0
   -2.0189   61.2437   72.2644 H   0  0  0  0  0  0  0  0  0  0  0  0
   -1.6658   62.2641   73.6375 H   0  0  0  0  0  0  0  0  0  0  0  0
    2.1745   54.8673   75.8416 H   0  0  0  0  0  0  0  0  0  0  0  0
    1.4429   54.0162   74.4391 H   0  0  0  0  0  0  0  0  0  0  0  0
    3.1968   54.4041   74.4391 H   0  0  0  0  0  0  0  0  0  0  0  0
    2.6460   56.2595   73.2937 H   0  0  0  0  0  0  0  0  0  0  0  0
    0.8728   56.0359   73.7068 H   0  0  0  0  0  0  0  0  0  0  0  0
    2.0360   57.3955   77.0404 H   0  0  0  0  0  0  0  0  0  0  0  0
   -9.1686   60.8245   75.5010 H   0  0  0  0  0  0  0  0  0  0  0  0
   -6.5734   62.2076   73.6791 H   0  0  0  0  0  0  0  0  0  0  0  0
   -8.2318   61.4859   73.9497 H   0  0  0  0  0  0  0  0  0  0  0  0
   -7.7566   62.3887   76.3270 H   0  0  0  0  0  0  0  0  0  0  0  0
   -9.3928   63.8843   76.0338 H   0  0  0  0  0  0  0  0  0  0  0  0
   -8.6552   64.4980   74.5152 H   0  0  0  0  0  0  0  0  0  0  0  0
   -9.5433   62.9366   74.5152 H   0  0  0  0  0  0  0  0  0  0  0  0
   -6.2813   63.9840   76.6769 H   0  0  0  0  0  0  0  0  0  0  0  0
   -5.5638   63.4139   75.1320 H   0  0  0  0  0  0  0  0  0  0  0  0
   -6.7196   64.7890   75.1320 H   0  0  0  0  0  0  0  0  0  0  0  0
  2  1  1  0
  3  2  2  0
  4  2  1  0
  5  4  1  0
  6  5  1  0
  7  6  2  0
  7  1  1  0
  8  7  1  0
  9  8  2  0
 10  9  1  0
 11 10  2  0
 12 11  1  0
 13 12  2  0
 14 13  1  0
 15 14  2  0
 16 15  1  0
 17 16  2  0
 17 12  1  0
 18 17  1  0
 19 18  2  0
 19 10  1  0
 20 19  1  0
 21 20  1  0
 21  9  1  0
 22 21  1  0
 22  6  1  0
 23 22  2  0
 25 24  1  0
 25  1  1  0
  1 26  1  1
 27 15  1  0
 28 16  1  0
 29 28  1  0
 30 29  1  0
 31 29  1  0
  5 32  1  0
  5 33  1  0
  8 34  1  0
 13 35  1  0
 14 36  1  0
 18 37  1  0
 20 38  1  0
 20 39  1  0
 24 40  1  0
 24 41  1  0
 24 42  1  0
 25 43  1  0
 25 44  1  0
 26 45  1  0
 27 46  1  0
 28 47  1  0
 28 48  1  0
 29 49  1  0
 30 50  1  0
 30 51  1  0
 30 52  1  0
 31 53  1  0
 31 54  1  0
 31 55  1  0
M  CHG  1  29   1
M  END
>  <score>  (9) 
-6.272

$$$$
