=
     RDKit          3D

 60 62  0  0  0  0  0  0  0  0999 V2000
    0.8870   65.4940   70.7220 C   0  0  0  0  0  0  0  0  0  0  0  0
    0.1240   64.8920   71.7280 C   0  0  0  0  0  0  0  0  0  0  0  0
    0.5060   63.6500   72.2430 C   0  0  0  0  0  0  0  0  0  0  0  0
    1.6530   63.0380   71.7530 C   0  0  0  0  0  0  0  0  0  0  0  0
    2.4120   63.6660   70.7600 C   0  0  0  0  0  0  0  0  0  0  0  0
    2.0560   64.9050   70.2430 C   0  0  0  0  0  0  0  0  0  0  0  0
    3.5660   62.7980   70.3740 C   0  0  2  0  0  0  0  0  0  0  0  0
    4.9170   63.4880   70.5410 C   0  0  0  0  0  0  0  0  0  0  0  0
    3.3730   62.1900   68.9800 C   0  0  0  0  0  0  0  0  0  0  0  0
    3.6430   60.7150   69.1720 C   0  0  0  0  0  0  0  0  0  0  0  0
    3.1050   60.4290   70.5340 N   0  0  2  0  0  4  0  0  0  0  0  0
    3.3940   61.6170   71.3740 C   0  0  2  0  0  0  0  0  0  0  0  0
    2.1570   61.7630   72.1260 N   0  0  0  0  0  0  0  0  0  0  0  0
    2.2480   61.6100   73.5810 C   0  0  0  0  0  0  0  0  0  0  0  0
    3.5060   59.1190   71.1030 C   0  0  0  0  0  0  0  0  0  0  0  0
    0.4610   66.7400   70.2450 O   0  0  0  0  0  0  0  0  0  0  0  0
    1.3190   67.5240   68.3220 N   0  0  0  0  0  0  0  0  0  0  0  0
    0.2860   66.8170   68.8700 C   0  0  0  0  0  0  0  0  0  0  0  0
   -0.6440   66.3340   68.2370 O   0  0  0  0  0  0  0  0  0  0  0  0
    1.3770   67.8640   66.9170 C   0  0  0  0  0  0  0  0  0  0  0  0
    2.2550   69.0900   66.6760 C   0  0  0  0  0  0  0  0  0  0  0  0
    3.1460   68.9640   65.4370 C   0  0  0  0  0  0  0  0  0  0  0  0
    4.5780   69.4850   65.5940 C   0  0  0  0  0  0  0  0  0  0  0  0
    4.9960   69.8480   67.0230 C   0  0  0  0  0  0  0  0  0  0  0  0
    6.7200   70.9040   68.5790 C   0  0  0  0  0  0  0  0  0  0  0  0
    6.4130   70.4030   67.1760 C   0  0  0  0  0  0  0  0  0  0  0  0
   -0.7751   65.3952   72.1132 H   0  0  0  0  0  0  0  0  0  0  0  0
   -0.0938   63.1634   73.0262 H   0  0  0  0  0  0  0  0  0  0  0  0
    2.6747   65.4038   69.4825 H   0  0  0  0  0  0  0  0  0  0  0  0
    5.1405   63.6022   71.6120 H   0  0  0  0  0  0  0  0  0  0  0  0
    5.7006   62.8797   70.0657 H   0  0  0  0  0  0  0  0  0  0  0  0
    4.8836   64.4794   70.0657 H   0  0  0  0  0  0  0  0  0  0  0  0
    2.3457   62.3543   68.6226 H   0  0  0  0  0  0  0  0  0  0  0  0
    4.0371   62.6434   68.2294 H   0  0  0  0  0  0  0  0  0  0  0  0
    3.1193   60.1184   68.4106 H   0  0  0  0  0  0  0  0  0  0  0  0
    4.7088   60.4613   69.0737 H   0  0  0  0  0  0  0  0  0  0  0  0
    2.0849   60.2938   70.4883 H   0  0  0  0  0  0  0  0  0  0  0  0
    4.2771   61.5622   72.0276 H   0  0  0  0  0  0  0  0  0  0  0  0
    1.7445   62.4565   74.0709 H   0  0  0  0  0  0  0  0  0  0  0  0
    1.7619   60.6702   73.8820 H   0  0  0  0  0  0  0  0  0  0  0  0
    3.3058   61.5885   73.8820 H   0  0  0  0  0  0  0  0  0  0  0  0
    3.4887   59.1756   72.2014 H   0  0  0  0  0  0  0  0  0  0  0  0
    2.8045   58.3421   70.7648 H   0  0  0  0  0  0  0  0  0  0  0  0
    4.5221   58.8679   70.7648 H   0  0  0  0  0  0  0  0  0  0  0  0
    2.0889   67.8277   68.9351 H   0  0  0  0  0  0  0  0  0  0  0  0
    1.7920   67.0115   66.3593 H   0  0  0  0  0  0  0  0  0  0  0  0
    0.3576   68.0956   66.5746 H   0  0  0  0  0  0  0  0  0  0  0  0
    1.6029   69.9667   66.5492 H   0  0  0  0  0  0  0  0  0  0  0  0
    2.9202   69.1900   67.5463 H   0  0  0  0  0  0  0  0  0  0  0  0
    3.2013   67.8990   65.1671 H   0  0  0  0  0  0  0  0  0  0  0  0
    2.6796   69.5953   64.6663 H   0  0  0  0  0  0  0  0  0  0  0  0
    5.2637   68.7066   65.2279 H   0  0  0  0  0  0  0  0  0  0  0  0
    4.6227   70.4220   65.0195 H   0  0  0  0  0  0  0  0  0  0  0  0
    4.2932   70.6060   67.3990 H   0  0  0  0  0  0  0  0  0  0  0  0
    4.9789   68.9057   67.5902 H   0  0  0  0  0  0  0  0  0  0  0  0
    6.2942   70.2091   69.3178 H   0  0  0  0  0  0  0  0  0  0  0  0
    7.8097   70.9633   68.7169 H   0  0  0  0  0  0  0  0  0  0  0  0
    6.2781   71.9019   68.7169 H   0  0  0  0  0  0  0  0  0  0  0  0
    7.1282   69.6052   66.9269 H   0  0  0  0  0  0  0  0  0  0  0  0
    6.4976   71.2655   66.4986 H   0  0  0  0  0  0  0  0  0  0  0  0
  2  1  2  0
  3  2  1  0
  4  3  2  0
  5  4  1  0
  6  5  2  0
  6  1  1  0
  7  5  1  0
  7  8  1  6
  9  7  1  0
 10  9  1  0
 11 10  1  0
 12 11  1  0
 12  7  1  0
 13 12  1  0
 13  4  1  0
 14 13  1  0
 15 11  1  0
 16  1  1  0
 18 17  1  0
 18 16  1  0
 19 18  2  0
 20 17  1  0
 21 20  1  0
 22 21  1  0
 23 22  1  0
 24 23  1  0
 26 24  1  0
 26 25  1  0
  2 27  1  0
  3 28  1  0
  6 29  1  0
  8 30  1  0
  8 31  1  0
  8 32  1  0
  9 33  1  0
  9 34  1  0
 10 35  1  0
 10 36  1  0
 11 37  1  6
 12 38  1  1
 14 39  1  0
 14 40  1  0
 14 41  1  0
 15 42  1  0
 15 43  1  0
 15 44  1  0
 17 45  1  0
 20 46  1  0
 20 47  1  0
 21 48  1  0
 21 49  1  0
 22 50  1  0
 22 51  1  0
 23 52  1  0
 23 53  1  0
 24 54  1  0
 24 55  1  0
 25 56  1  0
 25 57  1  0
 25 58  1  0
 26 59  1  0
 26 60  1  0
M  CHG  1  11   1
M  END
>  <score>  (1) 
-9.983

$$$$
=
     RDKit          3D

 60 62  0  0  0  0  0  0  0  0999 V2000
    0.8200   65.1610   71.0690 C   0  0  0  0  0  0  0  0  0  0  0  0
    0.1600   64.4520   72.0790 C   0  0  0  0  0  0  0  0  0  0  0  0
    0.6510   63.2100   72.4930 C   0  0  0  0  0  0  0  0  0  0  0  0
    1.8020   62.7060   71.9000 C   0  0  0  0  0  0  0  0  0  0  0  0
    2.4570   63.4410   70.9060 C   0  0  0  0  0  0  0  0  0  0  0  0
    1.9920   64.6800   70.4880 C   0  0  0  0  0  0  0  0  0  0  0  0
    3.6380   62.6760   70.4010 C   0  0  2  0  0  0  0  0  0  0  0  0
    4.9500   63.4450   70.5320 C   0  0  0  0  0  0  0  0  0  0  0  0
    3.3990   62.1390   68.9850 C   0  0  0  0  0  0  0  0  0  0  0  0
    3.7730   60.6770   69.0690 C   0  0  0  0  0  0  0  0  0  0  0  0
    3.3400   60.2760   70.4390 N   0  0  2  0  0  4  0  0  0  0  0  0
    3.6040   61.4300   71.3330 C   0  0  2  0  0  0  0  0  0  0  0  0
    2.4080   61.4490   72.1630 N   0  0  0  0  0  0  0  0  0  0  0  0
    2.5990   61.2170   73.5980 C   0  0  0  0  0  0  0  0  0  0  0  0
    3.8580   58.9660   70.9020 C   0  0  0  0  0  0  0  0  0  0  0  0
    0.2870   66.4010   70.6970 O   0  0  0  0  0  0  0  0  0  0  0  0
    1.0090   67.6380   68.9650 N   0  0  0  0  0  0  0  0  0  0  0  0
    0.1840   66.6110   69.3280 C   0  0  0  0  0  0  0  0  0  0  0  0
   -0.5320   65.9850   68.5580 O   0  0  0  0  0  0  0  0  0  0  0  0
    1.0570   68.1660   67.6200 C   0  0  0  0  0  0  0  0  0  0  0  0
    2.1640   69.2080   67.4690 C   0  0  0  0  0  0  0  0  0  0  0  0
    2.9680   69.0570   66.1750 C   0  0  0  0  0  0  0  0  0  0  0  0
    4.3950   69.6140   66.2120 C   0  0  0  0  0  0  0  0  0  0  0  0
    5.2640   69.2900   64.9930 C   0  0  0  0  0  0  0  0  0  0  0  0
    5.4460   69.2110   62.4490 C   0  0  0  0  0  0  0  0  0  0  0  0
    4.5220   69.1980   63.6580 C   0  0  0  0  0  0  0  0  0  0  0  0
   -0.7434   64.8710   72.5463 H   0  0  0  0  0  0  0  0  0  0  0  0
    0.1328   62.6394   73.2778 H   0  0  0  0  0  0  0  0  0  0  0  0
    2.5296   65.2620   69.7249 H   0  0  0  0  0  0  0  0  0  0  0  0
    5.1884   63.5847   71.5967 H   0  0  0  0  0  0  0  0  0  0  0  0
    5.7577   62.8774   70.0468 H   0  0  0  0  0  0  0  0  0  0  0  0
    4.8494   64.4271   70.0468 H   0  0  0  0  0  0  0  0  0  0  0  0
    2.3435   62.2548   68.6978 H   0  0  0  0  0  0  0  0  0  0  0  0
    3.9859   62.6789   68.2273 H   0  0  0  0  0  0  0  0  0  0  0  0
    3.2419   60.0922   68.3035 H   0  0  0  0  0  0  0  0  0  0  0  0
    4.8447   60.5018   68.8937 H   0  0  0  0  0  0  0  0  0  0  0  0
    2.3300   60.0743   70.4434 H   0  0  0  0  0  0  0  0  0  0  0  0
    4.5276   61.3963   71.9295 H   0  0  0  0  0  0  0  0  0  0  0  0
    2.0016   61.9426   74.1694 H   0  0  0  0  0  0  0  0  0  0  0  0
    2.2760   60.1963   73.8506 H   0  0  0  0  0  0  0  0  0  0  0  0
    3.6627   61.3380   73.8506 H   0  0  0  0  0  0  0  0  0  0  0  0
    3.8670   58.9432   72.0017 H   0  0  0  0  0  0  0  0  0  0  0  0
    3.2104   58.1612   70.5239 H   0  0  0  0  0  0  0  0  0  0  0  0
    4.8808   58.8218   70.5239 H   0  0  0  0  0  0  0  0  0  0  0  0
    1.6228   68.0537   69.6801 H   0  0  0  0  0  0  0  0  0  0  0  0
    1.2447   67.3403   66.9179 H   0  0  0  0  0  0  0  0  0  0  0  0
    0.0936   68.6509   67.4040 H   0  0  0  0  0  0  0  0  0  0  0  0
    1.7057   70.2079   67.4802 H   0  0  0  0  0  0  0  0  0  0  0  0
    2.8637   69.0623   68.3052 H   0  0  0  0  0  0  0  0  0  0  0  0
    3.0296   67.9845   65.9383 H   0  0  0  0  0  0  0  0  0  0  0  0
    2.4335   69.6501   65.4183 H   0  0  0  0  0  0  0  0  0  0  0  0
    4.3289   70.7085   66.2991 H   0  0  0  0  0  0  0  0  0  0  0  0
    4.8853   69.1284   67.0686 H   0  0  0  0  0  0  0  0  0  0  0  0
    6.0271   70.0771   64.9025 H   0  0  0  0  0  0  0  0  0  0  0  0
    5.6785   68.2878   65.1767 H   0  0  0  0  0  0  0  0  0  0  0  0
    6.4925   69.2257   62.7875 H   0  0  0  0  0  0  0  0  0  0  0  0
    5.2693   68.3103   61.8428 H   0  0  0  0  0  0  0  0  0  0  0  0
    5.2441   70.1064   61.8428 H   0  0  0  0  0  0  0  0  0  0  0  0
    3.9438   68.2623   63.6445 H   0  0  0  0  0  0  0  0  0  0  0  0
    3.8781   70.0867   63.5833 H   0  0  0  0  0  0  0  0  0  0  0  0
  2  1  2  0
  3  2  1  0
  4  3  2  0
  5  4  1  0
  6  5  2  0
  6  1  1  0
  7  5  1  0
  7  8  1  6
  9  7  1  0
 10  9  1  0
 11 10  1  0
 12 11  1  0
 12  7  1  0
 13 12  1  0
 13  4  1  0
 14 13  1  0
 15 11  1  0
 16  1  1  0
 18 17  1  0
 18 16  1  0
 19 18  2  0
 20 17  1  0
 21 20  1  0
 22 21  1  0
 23 22  1  0
 24 23  1  0
 26 24  1  0
 26 25  1  0
  2 27  1  0
  3 28  1  0
  6 29  1  0
  8 30  1  0
  8 31  1  0
  8 32  1  0
  9 33  1  0
  9 34  1  0
 10 35  1  0
 10 36  1  0
 11 37  1  6
 12 38  1  1
 14 39  1  0
 14 40  1  0
 14 41  1  0
 15 42  1  0
 15 43  1  0
 15 44  1  0
 17 45  1  0
 20 46  1  0
 20 47  1  0
 21 48  1  0
 21 49  1  0
 22 50  1  0
 22 51  1  0
 23 52  1  0
 23 53  1  0
 24 54  1  0
 24 55  1  0
 25 56  1  0
 25 57  1  0
 25 58  1  0
 26 59  1  0
 26 60  1  0
M  CHG  1  11   1
M  END
>  <score>  (2) 
-9.703

$$$$
=
     RDKit          3D

 60 62  0  0  0  0  0  0  0  0999 V2000
    1.1860   64.9970   70.7850 C   0  0  0  0  0  0  0  0  0  0  0  0
    2.2520   64.7330   69.9170 C   0  0  0  0  0  0  0  0  0  0  0  0
    2.9240   63.5090   69.9910 C   0  0  0  0  0  0  0  0  0  0  0  0
    2.5090   62.5650   70.9210 C   0  0  0  0  0  0  0  0  0  0  0  0
    1.4290   62.8420   71.7670 C   0  0  0  0  0  0  0  0  0  0  0  0
    0.7420   64.0460   71.7020 C   0  0  0  0  0  0  0  0  0  0  0  0
    1.2020   61.6950   72.6980 C   0  0  2  0  0  0  0  0  0  0  0  0
   -0.2100   61.1230   72.6120 C   0  0  0  0  0  0  0  0  0  0  0  0
    1.6210   62.0410   74.1320 C   0  0  0  0  0  0  0  0  0  0  0  0
    2.5020   60.8880   74.5560 C   0  0  0  0  0  0  0  0  0  0  0  0
    3.2230   60.5130   73.3050 N   0  0  2  0  0  4  0  0  0  0  0  0
    2.2670   60.6830   72.1840 C   0  0  2  0  0  0  0  0  0  0  0  0
    3.1040   61.2980   71.1640 N   0  0  0  0  0  0  0  0  0  0  0  0
    3.3040   60.5360   69.9280 C   0  0  0  0  0  0  0  0  0  0  0  0
    3.9350   59.2130   73.3590 C   0  0  0  0  0  0  0  0  0  0  0  0
    0.5460   66.2370   70.6640 O   0  0  0  0  0  0  0  0  0  0  0  0
    1.0400   67.6280   68.9700 N   0  0  0  0  0  0  0  0  0  0  0  0
    0.2210   66.6080   69.3660 C   0  0  0  0  0  0  0  0  0  0  0  0
   -0.6590   66.1110   68.6760 O   0  0  0  0  0  0  0  0  0  0  0  0
    0.8890   68.3050   67.7010 C   0  0  0  0  0  0  0  0  0  0  0  0
    1.6600   67.5900   66.5930 C   0  0  0  0  0  0  0  0  0  0  0  0
    2.5420   68.5280   65.7640 C   0  0  0  0  0  0  0  0  0  0  0  0
    3.4640   69.4520   66.5670 C   0  0  0  0  0  0  0  0  0  0  0  0
    4.8780   69.6260   66.0040 C   0  0  0  0  0  0  0  0  0  0  0  0
    5.3310   70.5620   68.3340 C   0  0  0  0  0  0  0  0  0  0  0  0
    5.9150   70.1840   66.9810 C   0  0  0  0  0  0  0  0  0  0  0  0
    2.5605   65.4871   69.1780 H   0  0  0  0  0  0  0  0  0  0  0  0
    3.7704   63.2967   69.3212 H   0  0  0  0  0  0  0  0  0  0  0  0
   -0.1233   64.2430   72.3519 H   0  0  0  0  0  0  0  0  0  0  0  0
   -0.6035   60.9636   73.6268 H   0  0  0  0  0  0  0  0  0  0  0  0
   -0.8594   61.8290   72.0736 H   0  0  0  0  0  0  0  0  0  0  0  0
   -0.1850   60.1641   72.0736 H   0  0  0  0  0  0  0  0  0  0  0  0
    2.1807   62.9876   74.1561 H   0  0  0  0  0  0  0  0  0  0  0  0
    0.7573   62.1758   74.7998 H   0  0  0  0  0  0  0  0  0  0  0  0
    3.2098   61.2022   75.3372 H   0  0  0  0  0  0  0  0  0  0  0  0
    1.9310   60.0515   74.9852 H   0  0  0  0  0  0  0  0  0  0  0  0
    4.0237   61.1439   73.1578 H   0  0  0  0  0  0  0  0  0  0  0  0
    1.7607   59.7770   71.8195 H   0  0  0  0  0  0  0  0  0  0  0  0
    3.5761   59.4995   70.1762 H   0  0  0  0  0  0  0  0  0  0  0  0
    2.3743   60.5403   69.3401 H   0  0  0  0  0  0  0  0  0  0  0  0
    4.1117   60.9963   69.3401 H   0  0  0  0  0  0  0  0  0  0  0  0
    4.0929   58.9247   74.4088 H   0  0  0  0  0  0  0  0  0  0  0  0
    3.3324   58.4436   72.8541 H   0  0  0  0  0  0  0  0  0  0  0  0
    4.9078   59.3065   72.8541 H   0  0  0  0  0  0  0  0  0  0  0  0
    1.7965   67.9271   69.6018 H   0  0  0  0  0  0  0  0  0  0  0  0
   -0.1779   68.3322   67.4345 H   0  0  0  0  0  0  0  0  0  0  0  0
    1.2921   69.3235   67.8017 H   0  0  0  0  0  0  0  0  0  0  0  0
    2.3015   66.8238   67.0529 H   0  0  0  0  0  0  0  0  0  0  0  0
    0.9169   67.1538   65.9093 H   0  0  0  0  0  0  0  0  0  0  0  0
    3.1714   67.9088   65.1080 H   0  0  0  0  0  0  0  0  0  0  0  0
    1.8507   69.1900   65.2218 H   0  0  0  0  0  0  0  0  0  0  0  0
    2.9928   70.4449   66.6119 H   0  0  0  0  0  0  0  0  0  0  0  0
    3.5876   68.9743   67.5501 H   0  0  0  0  0  0  0  0  0  0  0  0
    5.2300   68.6412   65.6630 H   0  0  0  0  0  0  0  0  0  0  0  0
    4.7917   70.3709   65.1992 H   0  0  0  0  0  0  0  0  0  0  0  0
    5.9645   70.1519   69.1343 H   0  0  0  0  0  0  0  0  0  0  0  0
    5.2911   71.6577   68.4230 H   0  0  0  0  0  0  0  0  0  0  0  0
    4.3151   70.1497   68.4230 H   0  0  0  0  0  0  0  0  0  0  0  0
    6.6918   69.4211   67.1377 H   0  0  0  0  0  0  0  0  0  0  0  0
    6.3189   71.1043   66.5340 H   0  0  0  0  0  0  0  0  0  0  0  0
  2  1  2  0
  3  2  1  0
  4  3  2  0
  5  4  1  0
  6  5  2  0
  6  1  1  0
  7  5  1  0
  7  8  1  1
  9  7  1  0
 10  9  1  0
 11 10  1  0
 12 11  1  0
 12  7  1  0
 13 12  1  0
 13  4  1  0
 14 13  1  0
 15 11  1  0
 16  1  1  0
 18 17  1  0
 18 16  1  0
 19 18  2  0
 20 17  1  0
 21 20  1  0
 22 21  1  0
 23 22  1  0
 24 23  1  0
 26 24  1  0
 26 25  1  0
  2 27  1  0
  3 28  1  0
  6 29  1  0
  8 30  1  0
  8 31  1  0
  8 32  1  0
  9 33  1  0
  9 34  1  0
 10 35  1  0
 10 36  1  0
 11 37  1  6
 12 38  1  6
 14 39  1  0
 14 40  1  0
 14 41  1  0
 15 42  1  0
 15 43  1  0
 15 44  1  0
 17 45  1  0
 20 46  1  0
 20 47  1  0
 21 48  1  0
 21 49  1  0
 22 50  1  0
 22 51  1  0
 23 52  1  0
 23 53  1  0
 24 54  1  0
 24 55  1  0
 25 56  1  0
 25 57  1  0
 25 58  1  0
 26 59  1  0
 26 60  1  0
M  CHG  1  11   1
M  END
>  <score>  (3) 
-9.138

$$$$
=
     RDKit          3D

 60 62  0  0  0  0  0  0  0  0999 V2000
    3.9580   69.6660   66.5810 C   0  0  0  0  0  0  0  0  0  0  0  0
    3.7490   69.7410   67.9630 C   0  0  0  0  0  0  0  0  0  0  0  0
    2.5800   69.2140   68.5200 C   0  0  0  0  0  0  0  0  0  0  0  0
    1.6470   68.6080   67.6880 C   0  0  0  0  0  0  0  0  0  0  0  0
    1.8850   68.5270   66.3120 C   0  0  0  0  0  0  0  0  0  0  0  0
    3.0440   69.0330   65.7400 C   0  0  0  0  0  0  0  0  0  0  0  0
    0.7260   67.8710   65.6320 C   0  0  2  0  0  0  0  0  0  0  0  0
    1.1230   66.6320   64.8340 C   0  0  0  0  0  0  0  0  0  0  0  0
   -0.0880   68.8760   64.8090 C   0  0  0  0  0  0  0  0  0  0  0  0
   -1.5180   68.6440   65.2390 C   0  0  0  0  0  0  0  0  0  0  0  0
   -1.4050   68.3090   66.6880 N   0  0  2  0  0  4  0  0  0  0  0  0
   -0.1670   67.5090   66.8540 C   0  0  2  0  0  0  0  0  0  0  0  0
    0.3920   68.0670   68.0760 N   0  0  0  0  0  0  0  0  0  0  0  0
    0.5130   67.1590   69.2210 C   0  0  0  0  0  0  0  0  0  0  0  0
   -2.6320   67.7400   67.2970 C   0  0  0  0  0  0  0  0  0  0  0  0
    5.1480   70.2050   66.0770 O   0  0  0  0  0  0  0  0  0  0  0  0
    5.3990   69.8970   63.8650 N   0  0  0  0  0  0  0  0  0  0  0  0
    5.7720   69.4430   65.0990 C   0  0  0  0  0  0  0  0  0  0  0  0
    6.5360   68.5070   65.2970 O   0  0  0  0  0  0  0  0  0  0  0  0
    5.8020   69.2490   62.6370 C   0  0  0  0  0  0  0  0  0  0  0  0
    4.6030   68.9790   61.7290 C   0  0  0  0  0  0  0  0  0  0  0  0
    3.7350   67.8090   62.2020 C   0  0  0  0  0  0  0  0  0  0  0  0
    4.4770   66.4930   62.4530 C   0  0  0  0  0  0  0  0  0  0  0  0
    4.4180   65.9630   63.8890 C   0  0  0  0  0  0  0  0  0  0  0  0
    3.8230   63.7880   65.0840 C   0  0  0  0  0  0  0  0  0  0  0  0
    4.7130   64.4710   64.0570 C   0  0  0  0  0  0  0  0  0  0  0  0
    4.5030   70.2137   68.6095 H   0  0  0  0  0  0  0  0  0  0  0  0
    2.4012   69.2784   69.6035 H   0  0  0  0  0  0  0  0  0  0  0  0
    3.2346   68.9379   64.6608 H   0  0  0  0  0  0  0  0  0  0  0  0
    1.3838   65.8180   65.5263 H   0  0  0  0  0  0  0  0  0  0  0  0
    0.2803   66.3185   64.2003 H   0  0  0  0  0  0  0  0  0  0  0  0
    1.9910   66.8666   64.2003 H   0  0  0  0  0  0  0  0  0  0  0  0
    0.2238   69.9066   65.0342 H   0  0  0  0  0  0  0  0  0  0  0  0
    0.0511   68.7412   63.7262 H   0  0  0  0  0  0  0  0  0  0  0  0
   -2.1231   69.5509   65.0927 H   0  0  0  0  0  0  0  0  0  0  0  0
   -2.0137   67.8528   64.6573 H   0  0  0  0  0  0  0  0  0  0  0  0
   -1.3205   69.1724   67.2432 H   0  0  0  0  0  0  0  0  0  0  0  0
   -0.2837   66.4165   66.9082 H   0  0  0  0  0  0  0  0  0  0  0  0
    0.4363   67.7347   70.1552 H   0  0  0  0  0  0  0  0  0  0  0  0
   -0.2935   66.4119   69.1834 H   0  0  0  0  0  0  0  0  0  0  0  0
    1.4870   66.6492   69.1834 H   0  0  0  0  0  0  0  0  0  0  0  0
   -2.5490   67.7785   68.3932 H   0  0  0  0  0  0  0  0  0  0  0  0
   -3.5063   68.3246   66.9747 H   0  0  0  0  0  0  0  0  0  0  0  0
   -2.7506   66.6950   66.9747 H   0  0  0  0  0  0  0  0  0  0  0  0
    4.8054   70.7368   63.8074 H   0  0  0  0  0  0  0  0  0  0  0  0
    6.5135   69.8988   62.1064 H   0  0  0  0  0  0  0  0  0  0  0  0
    6.2676   68.2853   62.8910 H   0  0  0  0  0  0  0  0  0  0  0  0
    3.9797   69.8847   61.6955 H   0  0  0  0  0  0  0  0  0  0  0  0
    4.9989   68.7108   60.7384 H   0  0  0  0  0  0  0  0  0  0  0  0
    3.2480   68.1074   63.1421 H   0  0  0  0  0  0  0  0  0  0  0  0
    3.0314   67.6056   61.3813 H   0  0  0  0  0  0  0  0  0  0  0  0
    4.0429   65.7284   61.7920 H   0  0  0  0  0  0  0  0  0  0  0  0
    5.5381   66.7032   62.2534 H   0  0  0  0  0  0  0  0  0  0  0  0
    5.1529   66.5224   64.4864 H   0  0  0  0  0  0  0  0  0  0  0  0
    3.3777   66.1024   64.2181 H   0  0  0  0  0  0  0  0  0  0  0  0
    4.1640   64.0497   66.0965 H   0  0  0  0  0  0  0  0  0  0  0  0
    2.7839   64.1227   64.9491 H   0  0  0  0  0  0  0  0  0  0  0  0
    3.8775   62.6977   64.9491 H   0  0  0  0  0  0  0  0  0  0  0  0
    4.5671   63.9758   63.0857 H   0  0  0  0  0  0  0  0  0  0  0  0
    5.7485   64.3848   64.4181 H   0  0  0  0  0  0  0  0  0  0  0  0
  2  1  2  0
  3  2  1  0
  4  3  2  0
  5  4  1  0
  6  5  2  0
  6  1  1  0
  7  5  1  0
  7  8  1  6
  9  7  1  0
 10  9  1  0
 11 10  1  0
 12 11  1  0
 12  7  1  0
 13 12  1  0
 13  4  1  0
 14 13  1  0
 15 11  1  0
 16  1  1  0
 18 17  1  0
 18 16  1  0
 19 18  2  0
 20 17  1  0
 21 20  1  0
 22 21  1  0
 23 22  1  0
 24 23  1  0
 26 24  1  0
 26 25  1  0
  2 27  1  0
  3 28  1  0
  6 29  1  0
  8 30  1  0
  8 31  1  0
  8 32  1  0
  9 33  1  0
  9 34  1  0
 10 35  1  0
 10 36  1  0
 11 37  1  1
 12 38  1  1
 14 39  1  0
 14 40  1  0
 14 41  1  0
 15 42  1  0
 15 43  1  0
 15 44  1  0
 17 45  1  0
 20 46  1  0
 20 47  1  0
 21 48  1  0
 21 49  1  0
 22 50  1  0
 22 51  1  0
 23 52  1  0
 23 53  1  0
 24 54  1  0
 24 55  1  0
 25 56  1  0
 25 57  1  0
 25 58  1  0
 26 59  1  0
 26 60  1  0
M  CHG  1  11   1
M  END
>  <score>  (4) 
-8.756

$$$$
=
     RDKit          3D

 60 62  0  0  0  0  0  0  0  0999 V2000
    0.8860   68.1230   67.3520 C   0  0  0  0  0  0  0  0  0  0  0  0
   -0.1180   68.8370   66.6890 C   0  0  0  0  0  0  0  0  0  0  0  0
   -0.0370   69.0310   65.3060 C   0  0  0  0  0  0  0  0  0  0  0  0
    1.0380   68.4960   64.6100 C   0  0  0  0  0  0  0  0  0  0  0  0
    2.0220   67.7690   65.2900 C   0  0  0  0  0  0  0  0  0  0  0  0
    1.9550   67.5550   66.6600 C   0  0  0  0  0  0  0  0  0  0  0  0
    3.0870   67.3340   64.3360 C   0  0  2  0  0  0  0  0  0  0  0  0
    3.2960   65.8220   64.3200 C   0  0  0  0  0  0  0  0  0  0  0  0
    4.3880   68.1150   64.5480 C   0  0  0  0  0  0  0  0  0  0  0  0
    4.7700   68.5940   63.1660 C   0  0  0  0  0  0  0  0  0  0  0  0
    3.4600   68.8800   62.5130 N   0  0  2  0  0  4  0  0  0  0  0  0
    2.5040   67.8500   62.9880 C   0  0  2  0  0  0  0  0  0  0  0  0
    1.3020   68.6370   63.2210 N   0  0  0  0  0  0  0  0  0  0  0  0
    0.1310   68.3110   62.4010 C   0  0  0  0  0  0  0  0  0  0  0  0
    3.5210   69.0800   61.0450 C   0  0  0  0  0  0  0  0  0  0  0  0
    0.7530   67.9550   68.7360 O   0  0  0  0  0  0  0  0  0  0  0  0
    1.1230   66.1920   70.0800 N   0  0  0  0  0  0  0  0  0  0  0  0
    0.2830   66.7100   69.1350 C   0  0  0  0  0  0  0  0  0  0  0  0
   -0.7220   66.1530   68.7130 O   0  0  0  0  0  0  0  0  0  0  0  0
    0.9630   64.8630   70.6270 C   0  0  0  0  0  0  0  0  0  0  0  0
    2.2900   64.1070   70.6540 C   0  0  0  0  0  0  0  0  0  0  0  0
    2.1930   62.6890   70.0850 C   0  0  0  0  0  0  0  0  0  0  0  0
    3.4030   62.2150   69.2750 C   0  0  0  0  0  0  0  0  0  0  0  0
    3.8210   60.7580   69.5000 C   0  0  0  0  0  0  0  0  0  0  0  0
    5.3300   61.6720   71.3430 C   0  0  0  0  0  0  0  0  0  0  0  0
    4.5550   60.4760   70.8130 C   0  0  0  0  0  0  0  0  0  0  0  0
   -0.9691   69.2449   67.2539 H   0  0  0  0  0  0  0  0  0  0  0  0
   -0.8154   69.6003   64.7769 H   0  0  0  0  0  0  0  0  0  0  0  0
    2.7182   66.9585   67.1812 H   0  0  0  0  0  0  0  0  0  0  0  0
    3.3477   65.4480   65.3532 H   0  0  0  0  0  0  0  0  0  0  0  0
    2.4558   65.3412   63.7976 H   0  0  0  0  0  0  0  0  0  0  0  0
    4.2351   65.5872   63.7976 H   0  0  0  0  0  0  0  0  0  0  0  0
    4.2243   68.9674   65.2237 H   0  0  0  0  0  0  0  0  0  0  0  0
    5.1746   67.5007   65.0106 H   0  0  0  0  0  0  0  0  0  0  0  0
    5.3861   69.5035   63.2230 H   0  0  0  0  0  0  0  0  0  0  0  0
    5.3695   67.8572   62.6114 H   0  0  0  0  0  0  0  0  0  0  0  0
    3.1199   69.8090   62.7998 H   0  0  0  0  0  0  0  0  0  0  0  0
    2.3213   66.9952   62.3203 H   0  0  0  0  0  0  0  0  0  0  0  0
   -0.7206   68.0739   63.0557 H   0  0  0  0  0  0  0  0  0  0  0  0
   -0.1233   69.1725   61.7661 H   0  0  0  0  0  0  0  0  0  0  0  0
    0.3584   67.4420   61.7661 H   0  0  0  0  0  0  0  0  0  0  0  0
    3.8356   70.1115   60.8282 H   0  0  0  0  0  0  0  0  0  0  0  0
    4.2454   68.3764   60.6089 H   0  0  0  0  0  0  0  0  0  0  0  0
    2.5272   68.9004   60.6089 H   0  0  0  0  0  0  0  0  0  0  0  0
    1.9037   66.7731   70.4172 H   0  0  0  0  0  0  0  0  0  0  0  0
    0.5758   64.9429   71.6535 H   0  0  0  0  0  0  0  0  0  0  0  0
    0.2616   64.3077   69.9869 H   0  0  0  0  0  0  0  0  0  0  0  0
    3.0250   64.6712   70.0611 H   0  0  0  0  0  0  0  0  0  0  0  0
    2.5898   64.0143   71.7083 H   0  0  0  0  0  0  0  0  0  0  0  0
    2.0574   61.9951   70.9277 H   0  0  0  0  0  0  0  0  0  0  0  0
    1.3482   62.7054   69.3807 H   0  0  0  0  0  0  0  0  0  0  0  0
    3.1652   62.3379   68.2081 H   0  0  0  0  0  0  0  0  0  0  0  0
    4.2512   62.8273   69.6151 H   0  0  0  0  0  0  0  0  0  0  0  0
    2.9124   60.1383   69.4804 H   0  0  0  0  0  0  0  0  0  0  0  0
    4.5369   60.5231   68.6985 H   0  0  0  0  0  0  0  0  0  0  0  0
    5.3203   61.6570   72.4429 H   0  0  0  0  0  0  0  0  0  0  0  0
    6.3689   61.6237   70.9848 H   0  0  0  0  0  0  0  0  0  0  0  0
    4.8614   62.6005   70.9848 H   0  0  0  0  0  0  0  0  0  0  0  0
    3.8138   60.1783   71.5693 H   0  0  0  0  0  0  0  0  0  0  0  0
    5.2867   59.6800   70.6104 H   0  0  0  0  0  0  0  0  0  0  0  0
  2  1  2  0
  3  2  1  0
  4  3  2  0
  5  4  1  0
  6  5  2  0
  6  1  1  0
  7  5  1  0
  7  8  1  6
  9  7  1  0
 10  9  1  0
 11 10  1  0
 12 11  1  0
 12  7  1  0
 13 12  1  0
 13  4  1  0
 14 13  1  0
 15 11  1  0
 16  1  1  0
 18 17  1  0
 18 16  1  0
 19 18  2  0
 20 17  1  0
 21 20  1  0
 22 21  1  0
 23 22  1  0
 24 23  1  0
 26 24  1  0
 26 25  1  0
  2 27  1  0
  3 28  1  0
  6 29  1  0
  8 30  1  0
  8 31  1  0
  8 32  1  0
  9 33  1  0
  9 34  1  0
 10 35  1  0
 10 36  1  0
 11 37  1  1
 12 38  1  6
 14 39  1  0
 14 40  1  0
 14 41  1  0
 15 42  1  0
 15 43  1  0
 15 44  1  0
 17 45  1  0
 20 46  1  0
 20 47  1  0
 21 48  1  0
 21 49  1  0
 22 50  1  0
 22 51  1  0
 23 52  1  0
 23 53  1  0
 24 54  1  0
 24 55  1  0
 25 56  1  0
 25 57  1  0
 25 58  1  0
 26 59  1  0
 26 60  1  0
M  CHG  1  11   1
M  END
>  <score>  (5) 
-8.681

$$$$
=
     RDKit          3D

 60 62  0  0  0  0  0  0  0  0999 V2000
    0.6750   67.5070   66.2200 C   0  0  0  0  0  0  0  0  0  0  0  0
   -0.0680   68.4410   65.4890 C   0  0  0  0  0  0  0  0  0  0  0  0
    0.4310   68.9390   64.2820 C   0  0  0  0  0  0  0  0  0  0  0  0
    1.6590   68.4830   63.8190 C   0  0  0  0  0  0  0  0  0  0  0  0
    2.3770   67.5360   64.5560 C   0  0  0  0  0  0  0  0  0  0  0  0
    1.8950   67.0200   65.7500 C   0  0  0  0  0  0  0  0  0  0  0  0
    3.6750   67.2370   63.8750 C   0  0  2  0  0  0  0  0  0  0  0  0
    3.8550   65.7570   63.5500 C   0  0  0  0  0  0  0  0  0  0  0  0
    4.8630   67.8300   64.6410 C   0  0  0  0  0  0  0  0  0  0  0  0
    5.6540   68.5760   63.5920 C   0  0  0  0  0  0  0  0  0  0  0  0
    4.6080   69.1200   62.6770 N   0  0  2  0  0  4  0  0  0  0  0  0
    3.5360   68.0980   62.5860 C   0  0  2  0  0  0  0  0  0  0  0  0
    2.3340   68.9150   62.6460 N   0  0  0  0  0  0  0  0  0  0  0  0
    1.4620   68.8920   61.4670 C   0  0  0  0  0  0  0  0  0  0  0  0
    5.1160   69.6450   61.3870 C   0  0  0  0  0  0  0  0  0  0  0  0
    0.1260   67.0380   67.4190 O   0  0  0  0  0  0  0  0  0  0  0  0
    1.4360   68.6140   68.3410 N   0  0  0  0  0  0  0  0  0  0  0  0
    0.8030   67.4240   68.5680 C   0  0  0  0  0  0  0  0  0  0  0  0
    0.8380   66.8050   69.6230 O   0  0  0  0  0  0  0  0  0  0  0  0
    2.3090   69.2340   69.3130 C   0  0  0  0  0  0  0  0  0  0  0  0
    3.1580   70.3340   68.6780 C   0  0  0  0  0  0  0  0  0  0  0  0
    3.9280   69.8680   67.4390 C   0  0  0  0  0  0  0  0  0  0  0  0
    5.4060   70.2670   67.3870 C   0  0  0  0  0  0  0  0  0  0  0  0
    5.8400   71.3280   68.4040 C   0  0  0  0  0  0  0  0  0  0  0  0
    7.5590   70.6650   70.1690 C   0  0  0  0  0  0  0  0  0  0  0  0
    7.3160   71.2940   68.8060 C   0  0  0  0  0  0  0  0  0  0  0  0
   -1.0439   68.7829   65.8640 H   0  0  0  0  0  0  0  0  0  0  0  0
   -0.1408   69.6819   63.7065 H   0  0  0  0  0  0  0  0  0  0  0  0
    2.4549   66.2540   66.3066 H   0  0  0  0  0  0  0  0  0  0  0  0
    3.9249   65.1821   64.4852 H   0  0  0  0  0  0  0  0  0  0  0  0
    2.9933   65.4026   62.9653 H   0  0  0  0  0  0  0  0  0  0  0  0
    4.7765   65.6194   62.9653 H   0  0  0  0  0  0  0  0  0  0  0  0
    4.5154   68.5164   65.4272 H   0  0  0  0  0  0  0  0  0  0  0  0
    5.4620   67.0585   65.1470 H   0  0  0  0  0  0  0  0  0  0  0  0
    6.2383   69.3895   64.0468 H   0  0  0  0  0  0  0  0  0  0  0  0
    6.3818   67.9353   63.0727 H   0  0  0  0  0  0  0  0  0  0  0  0
    4.2107   69.9848   63.0709 H   0  0  0  0  0  0  0  0  0  0  0  0
    3.5498   67.4386   61.7056 H   0  0  0  0  0  0  0  0  0  0  0  0
    0.4106   68.8643   61.7891 H   0  0  0  0  0  0  0  0  0  0  0  0
    1.6370   69.7951   60.8638 H   0  0  0  0  0  0  0  0  0  0  0  0
    1.6844   67.9994   60.8638 H   0  0  0  0  0  0  0  0  0  0  0  0
    5.8692   70.4234   61.5790 H   0  0  0  0  0  0  0  0  0  0  0  0
    5.5733   68.8260   60.8124 H   0  0  0  0  0  0  0  0  0  0  0  0
    4.2824   70.0751   60.8124 H   0  0  0  0  0  0  0  0  0  0  0  0
    1.2848   69.0891   67.4397 H   0  0  0  0  0  0  0  0  0  0  0  0
    1.6973   69.6722   70.1154 H   0  0  0  0  0  0  0  0  0  0  0  0
    2.9840   68.4633   69.7135 H   0  0  0  0  0  0  0  0  0  0  0  0
    2.4949   71.1616   68.3858 H   0  0  0  0  0  0  0  0  0  0  0  0
    3.9026   70.6428   69.4264 H   0  0  0  0  0  0  0  0  0  0  0  0
    3.8727   68.7701   67.3997 H   0  0  0  0  0  0  0  0  0  0  0  0
    3.4516   70.3693   66.5836 H   0  0  0  0  0  0  0  0  0  0  0  0
    6.0073   69.3629   67.5632 H   0  0  0  0  0  0  0  0  0  0  0  0
    5.5620   70.7177   66.3958 H   0  0  0  0  0  0  0  0  0  0  0  0
    5.6298   72.3173   67.9715 H   0  0  0  0  0  0  0  0  0  0  0  0
    5.2731   71.1143   69.3222 H   0  0  0  0  0  0  0  0  0  0  0  0
    7.2826   71.3804   70.9575 H   0  0  0  0  0  0  0  0  0  0  0  0
    6.9473   69.7561   70.2677 H   0  0  0  0  0  0  0  0  0  0  0  0
    8.6229   70.4034   70.2677 H   0  0  0  0  0  0  0  0  0  0  0  0
    7.8691   70.7150   68.0517 H   0  0  0  0  0  0  0  0  0  0  0  0
    7.6594   72.3374   68.8652 H   0  0  0  0  0  0  0  0  0  0  0  0
  2  1  2  0
  3  2  1  0
  4  3  2  0
  5  4  1  0
  6  5  2  0
  6  1  1  0
  7  5  1  0
  7  8  1  6
  9  7  1  0
 10  9  1  0
 11 10  1  0
 12 11  1  0
 12  7  1  0
 13 12  1  0
 13  4  1  0
 14 13  1  0
 15 11  1  0
 16  1  1  0
 18 17  1  0
 18 16  1  0
 19 18  2  0
 20 17  1  0
 21 20  1  0
 22 21  1  0
 23 22  1  0
 24 23  1  0
 26 24  1  0
 26 25  1  0
  2 27  1  0
  3 28  1  0
  6 29  1  0
  8 30  1  0
  8 31  1  0
  8 32  1  0
  9 33  1  0
  9 34  1  0
 10 35  1  0
 10 36  1  0
 11 37  1  1
 12 38  1  6
 14 39  1  0
 14 40  1  0
 14 41  1  0
 15 42  1  0
 15 43  1  0
 15 44  1  0
 17 45  1  0
 20 46  1  0
 20 47  1  0
 21 48  1  0
 21 49  1  0
 22 50  1  0
 22 51  1  0
 23 52  1  0
 23 53  1  0
 24 54  1  0
 24 55  1  0
 25 56  1  0
 25 57  1  0
 25 58  1  0
 26 59  1  0
 26 60  1  0
M  CHG  1  11   1
M  END
>  <score>  (6) 
-8.559

$$$$
=
     RDKit          3D

 60 62  0  0  0  0  0  0  0  0999 V2000
   -0.5130   68.7260   64.3490 C   0  0  0  0  0  0  0  0  0  0  0  0
   -0.5780   69.2420   63.0500 C   0  0  0  0  0  0  0  0  0  0  0  0
    0.5850   69.3380   62.2800 C   0  0  0  0  0  0  0  0  0  0  0  0
    1.7900   68.9040   62.8170 C   0  0  0  0  0  0  0  0  0  0  0  0
    1.8290   68.3750   64.1110 C   0  0  0  0  0  0  0  0  0  0  0  0
    0.6850   68.2600   64.8890 C   0  0  0  0  0  0  0  0  0  0  0  0
    3.2350   68.0180   64.4740 C   0  0  2  0  0  0  0  0  0  0  0  0
    3.3990   66.5520   64.8690 C   0  0  0  0  0  0  0  0  0  0  0  0
    3.8120   68.9850   65.5140 C   0  0  0  0  0  0  0  0  0  0  0  0
    5.1460   69.4040   64.9400 C   0  0  0  0  0  0  0  0  0  0  0  0
    4.9010   69.4550   63.4690 N   0  0  2  0  0  4  0  0  0  0  0  0
    3.9740   68.3430   63.1440 C   0  0  2  0  0  0  0  0  0  0  0  0
    3.0660   68.9730   62.1970 N   0  0  0  0  0  0  0  0  0  0  0  0
    3.0500   68.4270   60.8370 C   0  0  0  0  0  0  0  0  0  0  0  0
    6.1220   69.5480   62.6330 C   0  0  0  0  0  0  0  0  0  0  0  0
   -1.7090   68.6480   65.0740 O   0  0  0  0  0  0  0  0  0  0  0  0
   -1.4990   67.2460   66.8180 N   0  0  0  0  0  0  0  0  0  0  0  0
   -1.5580   68.5610   66.4520 C   0  0  0  0  0  0  0  0  0  0  0  0
   -1.4900   69.5060   67.2280 O   0  0  0  0  0  0  0  0  0  0  0  0
   -1.4420   66.8190   68.1980 C   0  0  0  0  0  0  0  0  0  0  0  0
    0.0010   66.6700   68.6770 C   0  0  0  0  0  0  0  0  0  0  0  0
    0.1140   66.1540   70.1140 C   0  0  0  0  0  0  0  0  0  0  0  0
    1.3920   65.3750   70.4400 C   0  0  0  0  0  0  0  0  0  0  0  0
    1.2180   63.8640   70.6210 C   0  0  0  0  0  0  0  0  0  0  0  0
    3.7520   63.6120   70.4590 C   0  0  0  0  0  0  0  0  0  0  0  0
    2.4630   63.1060   71.0880 C   0  0  0  0  0  0  0  0  0  0  0  0
   -1.5422   69.5714   62.6355 H   0  0  0  0  0  0  0  0  0  0  0  0
    0.5461   69.7521   61.2617 H   0  0  0  0  0  0  0  0  0  0  0  0
    0.7224   67.8172   65.8952 H   0  0  0  0  0  0  0  0  0  0  0  0
    3.4086   66.4666   65.9656 H   0  0  0  0  0  0  0  0  0  0  0  0
    2.5607   65.9669   64.4629 H   0  0  0  0  0  0  0  0  0  0  0  0
    4.3459   66.1666   64.4629 H   0  0  0  0  0  0  0  0  0  0  0  0
    3.1530   69.8563   65.6429 H   0  0  0  0  0  0  0  0  0  0  0  0
    3.9101   68.5223   66.5071 H   0  0  0  0  0  0  0  0  0  0  0  0
    5.4441   70.3915   65.3220 H   0  0  0  0  0  0  0  0  0  0  0  0
    5.9606   68.7165   65.2118 H   0  0  0  0  0  0  0  0  0  0  0  0
    4.4518   70.3472   63.2178 H   0  0  0  0  0  0  0  0  0  0  0  0
    4.4226   67.4219   62.7436 H   0  0  0  0  0  0  0  0  0  0  0  0
    3.0178   67.3284   60.8833 H   0  0  0  0  0  0  0  0  0  0  0  0
    2.1623   68.7977   60.3035 H   0  0  0  0  0  0  0  0  0  0  0  0
    3.9579   68.7451   60.3035 H   0  0  0  0  0  0  0  0  0  0  0  0
    7.0070   69.6154   63.2828 H   0  0  0  0  0  0  0  0  0  0  0  0
    6.2006   68.6532   61.9980 H   0  0  0  0  0  0  0  0  0  0  0  0
    6.0642   70.4443   61.9980 H   0  0  0  0  0  0  0  0  0  0  0  0
   -1.4950   66.5283   66.0792 H   0  0  0  0  0  0  0  0  0  0  0  0
   -1.9517   67.5655   68.8248 H   0  0  0  0  0  0  0  0  0  0  0  0
   -1.9358   65.8393   68.2776 H   0  0  0  0  0  0  0  0  0  0  0  0
    0.5183   65.9636   68.0111 H   0  0  0  0  0  0  0  0  0  0  0  0
    0.4558   67.6713   68.6546 H   0  0  0  0  0  0  0  0  0  0  0  0
    0.0646   67.0208   70.7895 H   0  0  0  0  0  0  0  0  0  0  0  0
   -0.7137   65.4410   70.2432 H   0  0  0  0  0  0  0  0  0  0  0  0
    2.1061   65.5375   69.6192 H   0  0  0  0  0  0  0  0  0  0  0  0
    1.7374   65.7567   71.4121 H   0  0  0  0  0  0  0  0  0  0  0  0
    0.4240   63.7015   71.3648 H   0  0  0  0  0  0  0  0  0  0  0  0
    0.9807   63.4668   69.6230 H   0  0  0  0  0  0  0  0  0  0  0  0
    4.4620   63.8907   71.2516 H   0  0  0  0  0  0  0  0  0  0  0  0
    4.1913   62.8196   69.8352 H   0  0  0  0  0  0  0  0  0  0  0  0
    3.5349   64.4917   69.8352 H   0  0  0  0  0  0  0  0  0  0  0  0
    2.5444   63.2093   72.1801 H   0  0  0  0  0  0  0  0  0  0  0  0
    2.3401   62.0582   70.7764 H   0  0  0  0  0  0  0  0  0  0  0  0
  2  1  2  0
  3  2  1  0
  4  3  2  0
  5  4  1  0
  6  5  2  0
  6  1  1  0
  7  5  1  0
  7  8  1  1
  9  7  1  0
 10  9  1  0
 11 10  1  0
 12 11  1  0
 12  7  1  0
 13 12  1  0
 13  4  1  0
 14 13  1  0
 15 11  1  0
 16  1  1  0
 18 17  1  0
 18 16  1  0
 19 18  2  0
 20 17  1  0
 21 20  1  0
 22 21  1  0
 23 22  1  0
 24 23  1  0
 26 24  1  0
 26 25  1  0
  2 27  1  0
  3 28  1  0
  6 29  1  0
  8 30  1  0
  8 31  1  0
  8 32  1  0
  9 33  1  0
  9 34  1  0
 10 35  1  0
 10 36  1  0
 11 37  1  1
 12 38  1  6
 14 39  1  0
 14 40  1  0
 14 41  1  0
 15 42  1  0
 15 43  1  0
 15 44  1  0
 17 45  1  0
 20 46  1  0
 20 47  1  0
 21 48  1  0
 21 49  1  0
 22 50  1  0
 22 51  1  0
 23 52  1  0
 23 53  1  0
 24 54  1  0
 24 55  1  0
 25 56  1  0
 25 57  1  0
 25 58  1  0
 26 59  1  0
 26 60  1  0
M  CHG  1  11   1
M  END
>  <score>  (7) 
-8.298

$$$$
=
     RDKit          3D

 60 62  0  0  0  0  0  0  0  0999 V2000
    2.1780   58.8110   72.2230 C   0  0  0  0  0  0  0  0  0  0  0  0
    1.5930   57.9300   73.1390 C   0  0  0  0  0  0  0  0  0  0  0  0
    0.5960   58.3880   74.0060 C   0  0  0  0  0  0  0  0  0  0  0  0
    0.1910   59.7150   73.9310 C   0  0  0  0  0  0  0  0  0  0  0  0
    0.7760   60.5730   72.9940 C   0  0  0  0  0  0  0  0  0  0  0  0
    1.7590   60.1370   72.1170 C   0  0  0  0  0  0  0  0  0  0  0  0
    0.2040   61.9480   73.1350 C   0  0  2  0  0  0  0  0  0  0  0  0
   -0.4210   62.4720   71.8450 C   0  0  0  0  0  0  0  0  0  0  0  0
    1.2190   62.9210   73.7460 C   0  0  0  0  0  0  0  0  0  0  0  0
    0.4650   63.5960   74.8680 C   0  0  0  0  0  0  0  0  0  0  0  0
   -0.4210   62.5200   75.4000 N   0  0  2  0  0  4  0  0  0  0  0  0
   -0.8660   61.7100   74.2400 C   0  0  2  0  0  0  0  0  0  0  0  0
   -0.7670   60.3550   74.7610 N   0  0  0  0  0  0  0  0  0  0  0  0
   -2.0160   59.5920   74.8540 C   0  0  0  0  0  0  0  0  0  0  0  0
   -1.4920   62.9860   76.3150 C   0  0  0  0  0  0  0  0  0  0  0  0
    3.1680   58.2990   71.3760 O   0  0  0  0  0  0  0  0  0  0  0  0
    4.7290   59.8970   71.6190 N   0  0  0  0  0  0  0  0  0  0  0  0
    3.9310   59.2530   70.7160 C   0  0  0  0  0  0  0  0  0  0  0  0
    3.9000   59.4920   69.5160 O   0  0  0  0  0  0  0  0  0  0  0  0
    5.5720   61.0150   71.2610 C   0  0  0  0  0  0  0  0  0  0  0  0
    4.8540   62.3470   71.4740 C   0  0  0  0  0  0  0  0  0  0  0  0
    4.4090   63.0120   70.1690 C   0  0  0  0  0  0  0  0  0  0  0  0
    2.9120   63.3150   70.0570 C   0  0  0  0  0  0  0  0  0  0  0  0
    2.4640   64.6610   70.6360 C   0  0  0  0  0  0  0  0  0  0  0  0
    0.8990   66.5470   69.9260 C   0  0  0  0  0  0  0  0  0  0  0  0
    1.0300   65.0790   70.3030 C   0  0  0  0  0  0  0  0  0  0  0  0
    1.9166   56.8794   73.1771 H   0  0  0  0  0  0  0  0  0  0  0  0
    0.1382   57.7064   74.7380 H   0  0  0  0  0  0  0  0  0  0  0  0
    2.1922   60.8130   71.3651 H   0  0  0  0  0  0  0  0  0  0  0  0
   -1.2429   63.1611   72.0893 H   0  0  0  0  0  0  0  0  0  0  0  0
    0.3417   63.0046   71.2580 H   0  0  0  0  0  0  0  0  0  0  0  0
   -0.8123   61.6280   71.2580 H   0  0  0  0  0  0  0  0  0  0  0  0
    2.0927   62.3780   74.1357 H   0  0  0  0  0  0  0  0  0  0  0  0
    1.6061   63.6402   73.0091 H   0  0  0  0  0  0  0  0  0  0  0  0
    1.1565   63.9539   75.6450 H   0  0  0  0  0  0  0  0  0  0  0  0
   -0.0955   64.4807   74.5316 H   0  0  0  0  0  0  0  0  0  0  0  0
    0.1078   61.9156   76.0450 H   0  0  0  0  0  0  0  0  0  0  0  0
   -1.8641   61.9295   73.8332 H   0  0  0  0  0  0  0  0  0  0  0  0
   -2.2721   59.4355   75.9123 H   0  0  0  0  0  0  0  0  0  0  0  0
   -2.8245   60.1505   74.3597 H   0  0  0  0  0  0  0  0  0  0  0  0
   -1.8881   58.6176   74.3597 H   0  0  0  0  0  0  0  0  0  0  0  0
   -1.1702   62.8460   77.3575 H   0  0  0  0  0  0  0  0  0  0  0  0
   -1.6916   64.0523   76.1329 H   0  0  0  0  0  0  0  0  0  0  0  0
   -2.4082   62.4052   76.1329 H   0  0  0  0  0  0  0  0  0  0  0  0
    4.7298   59.5719   72.5963 H   0  0  0  0  0  0  0  0  0  0  0  0
    6.4782   60.9935   71.8841 H   0  0  0  0  0  0  0  0  0  0  0  0
    5.8284   60.9271   70.1949 H   0  0  0  0  0  0  0  0  0  0  0  0
    3.9642   62.1682   72.0956 H   0  0  0  0  0  0  0  0  0  0  0  0
    5.5691   63.0280   71.9587 H   0  0  0  0  0  0  0  0  0  0  0  0
    4.9548   63.9619   70.0701 H   0  0  0  0  0  0  0  0  0  0  0  0
    4.6295   62.2869   69.3717 H   0  0  0  0  0  0  0  0  0  0  0  0
    2.6422   63.2986   68.9907 H   0  0  0  0  0  0  0  0  0  0  0  0
    2.4035   62.5454   70.6562 H   0  0  0  0  0  0  0  0  0  0  0  0
    2.5549   64.6057   71.7308 H   0  0  0  0  0  0  0  0  0  0  0  0
    3.1136   65.4189   70.1738 H   0  0  0  0  0  0  0  0  0  0  0  0
    0.8446   67.1568   70.8399 H   0  0  0  0  0  0  0  0  0  0  0  0
    1.7734   66.8527   69.3328 H   0  0  0  0  0  0  0  0  0  0  0  0
   -0.0157   66.6930   69.3328 H   0  0  0  0  0  0  0  0  0  0  0  0
    0.6767   64.4695   69.4582 H   0  0  0  0  0  0  0  0  0  0  0  0
    0.4279   64.9225   71.2102 H   0  0  0  0  0  0  0  0  0  0  0  0
  2  1  2  0
  3  2  1  0
  4  3  2  0
  5  4  1  0
  6  5  2  0
  6  1  1  0
  7  5  1  0
  7  8  1  6
  9  7  1  0
 10  9  1  0
 11 10  1  0
 12 11  1  0
 12  7  1  0
 13 12  1  0
 13  4  1  0
 14 13  1  0
 15 11  1  0
 16  1  1  0
 18 17  1  0
 18 16  1  0
 19 18  2  0
 20 17  1  0
 21 20  1  0
 22 21  1  0
 23 22  1  0
 24 23  1  0
 26 24  1  0
 26 25  1  0
  2 27  1  0
  3 28  1  0
  6 29  1  0
  8 30  1  0
  8 31  1  0
  8 32  1  0
  9 33  1  0
  9 34  1  0
 10 35  1  0
 10 36  1  0
 11 37  1  1
 12 38  1  6
 14 39  1  0
 14 40  1  0
 14 41  1  0
 15 42  1  0
 15 43  1  0
 15 44  1  0
 17 45  1  0
 20 46  1  0
 20 47  1  0
 21 48  1  0
 21 49  1  0
 22 50  1  0
 22 51  1  0
 23 52  1  0
 23 53  1  0
 24 54  1  0
 24 55  1  0
 25 56  1  0
 25 57  1  0
 25 58  1  0
 26 59  1  0
 26 60  1  0
M  CHG  1  11   1
M  END
>  <score>  (8) 
-8.077

$$$$
=
     RDKit          3D

 60 62  0  0  0  0  0  0  0  0999 V2000
    4.1400   59.2920   72.0390 C   0  0  0  0  0  0  0  0  0  0  0  0
    3.3510   58.3960   71.3100 C   0  0  0  0  0  0  0  0  0  0  0  0
    2.4110   57.5980   71.9710 C   0  0  0  0  0  0  0  0  0  0  0  0
    2.2670   57.7230   73.3470 C   0  0  0  0  0  0  0  0  0  0  0  0
    3.0530   58.6390   74.0530 C   0  0  0  0  0  0  0  0  0  0  0  0
    3.9840   59.4480   73.4150 C   0  0  0  0  0  0  0  0  0  0  0  0
    2.7430   58.5580   75.5140 C   0  0  2  0  0  0  0  0  0  0  0  0
    2.2990   59.8930   76.1070 C   0  0  0  0  0  0  0  0  0  0  0  0
    3.8870   57.9060   76.2990 C   0  0  0  0  0  0  0  0  0  0  0  0
    3.2120   56.8440   77.1360 C   0  0  0  0  0  0  0  0  0  0  0  0
    2.1120   56.3460   76.2600 N   0  0  2  0  0  4  0  0  0  0  0  0
    1.5880   57.5150   75.5120 C   0  0  2  0  0  0  0  0  0  0  0  0
    1.4020   56.9630   74.1790 N   0  0  0  0  0  0  0  0  0  0  0  0
    0.0290   56.9300   73.6650 C   0  0  0  0  0  0  0  0  0  0  0  0
    1.0980   55.5060   76.9430 C   0  0  0  0  0  0  0  0  0  0  0  0
    5.0610   60.0690   71.3260 O   0  0  0  0  0  0  0  0  0  0  0  0
    4.0320   62.0040   70.8300 N   0  0  0  0  0  0  0  0  0  0  0  0
    4.5180   60.8400   70.3060 C   0  0  0  0  0  0  0  0  0  0  0  0
    4.4730   60.5340   69.1220 O   0  0  0  0  0  0  0  0  0  0  0  0
    3.3150   62.9790   70.0390 C   0  0  0  0  0  0  0  0  0  0  0  0
    1.8040   62.8340   70.2100 C   0  0  0  0  0  0  0  0  0  0  0  0
    1.2760   63.4590   71.5030 C   0  0  0  0  0  0  0  0  0  0  0  0
    1.1670   62.5110   72.7010 C   0  0  0  0  0  0  0  0  0  0  0  0
    0.7580   61.0720   72.3710 C   0  0  0  0  0  0  0  0  0  0  0  0
   -1.6470   61.2000   73.2120 C   0  0  0  0  0  0  0  0  0  0  0  0
   -0.3170   60.4650   73.2750 C   0  0  0  0  0  0  0  0  0  0  0  0
    3.4694   58.3190   70.2191 H   0  0  0  0  0  0  0  0  0  0  0  0
    1.7943   56.8813   71.4088 H   0  0  0  0  0  0  0  0  0  0  0  0
    4.5771   60.1855   73.9756 H   0  0  0  0  0  0  0  0  0  0  0  0
    2.3195   59.8314   77.2051 H   0  0  0  0  0  0  0  0  0  0  0  0
    2.9811   60.6882   75.7716 H   0  0  0  0  0  0  0  0  0  0  0  0
    1.2766   60.1213   75.7716 H   0  0  0  0  0  0  0  0  0  0  0  0
    4.6205   57.4544   75.6149 H   0  0  0  0  0  0  0  0  0  0  0  0
    4.4421   58.6320   76.9112 H   0  0  0  0  0  0  0  0  0  0  0  0
    3.9143   56.0339   77.3819 H   0  0  0  0  0  0  0  0  0  0  0  0
    2.8470   57.2299   78.0992 H   0  0  0  0  0  0  0  0  0  0  0  0
    2.4823   55.6589   75.5879 H   0  0  0  0  0  0  0  0  0  0  0  0
    0.6727   57.9854   75.9006 H   0  0  0  0  0  0  0  0  0  0  0  0
   -0.6777   56.9130   74.5078 H   0  0  0  0  0  0  0  0  0  0  0  0
   -0.1542   57.8240   73.0508 H   0  0  0  0  0  0  0  0  0  0  0  0
   -0.1110   56.0282   73.0508 H   0  0  0  0  0  0  0  0  0  0  0  0
    1.2151   55.6030   78.0324 H   0  0  0  0  0  0  0  0  0  0  0  0
    0.0905   55.8377   76.6515 H   0  0  0  0  0  0  0  0  0  0  0  0
    1.2364   54.4544   76.6515 H   0  0  0  0  0  0  0  0  0  0  0  0
    4.1827   62.1952   71.8308 H   0  0  0  0  0  0  0  0  0  0  0  0
    3.6158   63.9883   70.3565 H   0  0  0  0  0  0  0  0  0  0  0  0
    3.5607   62.8133   68.9797 H   0  0  0  0  0  0  0  0  0  0  0  0
    1.3082   63.3231   69.3585 H   0  0  0  0  0  0  0  0  0  0  0  0
    1.5843   61.7572   70.2565 H   0  0  0  0  0  0  0  0  0  0  0  0
    1.9521   64.2806   71.7822 H   0  0  0  0  0  0  0  0  0  0  0  0
    0.2484   63.7835   71.2821 H   0  0  0  0  0  0  0  0  0  0  0  0
    2.1481   62.4787   73.1974 H   0  0  0  0  0  0  0  0  0  0  0  0
    0.3623   62.9154   73.3326 H   0  0  0  0  0  0  0  0  0  0  0  0
    0.3797   61.0564   71.3382 H   0  0  0  0  0  0  0  0  0  0  0  0
    1.6596   60.4608   72.5245 H   0  0  0  0  0  0  0  0  0  0  0  0
   -2.0052   61.3980   74.2330 H   0  0  0  0  0  0  0  0  0  0  0  0
   -1.5144   62.1529   72.6787 H   0  0  0  0  0  0  0  0  0  0  0  0
   -2.3833   60.5807   72.6787 H   0  0  0  0  0  0  0  0  0  0  0  0
   -0.4809   59.4212   72.9689 H   0  0  0  0  0  0  0  0  0  0  0  0
    0.0478   60.5433   74.3098 H   0  0  0  0  0  0  0  0  0  0  0  0
  2  1  2  0
  3  2  1  0
  4  3  2  0
  5  4  1  0
  6  5  2  0
  6  1  1  0
  7  5  1  0
  7  8  1  1
  9  7  1  0
 10  9  1  0
 11 10  1  0
 12 11  1  0
 12  7  1  0
 13 12  1  0
 13  4  1  0
 14 13  1  0
 15 11  1  0
 16  1  1  0
 18 17  1  0
 18 16  1  0
 19 18  2  0
 20 17  1  0
 21 20  1  0
 22 21  1  0
 23 22  1  0
 24 23  1  0
 26 24  1  0
 26 25  1  0
  2 27  1  0
  3 28  1  0
  6 29  1  0
  8 30  1  0
  8 31  1  0
  8 32  1  0
  9 33  1  0
  9 34  1  0
 10 35  1  0
 10 36  1  0
 11 37  1  6
 12 38  1  1
 14 39  1  0
 14 40  1  0
 14 41  1  0
 15 42  1  0
 15 43  1  0
 15 44  1  0
 17 45  1  0
 20 46  1  0
 20 47  1  0
 21 48  1  0
 21 49  1  0
 22 50  1  0
 22 51  1  0
 23 52  1  0
 23 53  1  0
 24 54  1  0
 24 55  1  0
 25 56  1  0
 25 57  1  0
 25 58  1  0
 26 59  1  0
 26 60  1  0
M  CHG  1  11   1
M  END
>  <score>  (9) 
-7.806

$$$$
