=
     RDKit          3D

 30 32  0  0  0  0  0  0  0  0999 V2000
    0.7100   68.7780   66.8930 C   0  0  0  0  0  0  0  0  0  0  0  0
    1.5600   68.5000   65.8000 C   0  0  0  0  0  0  0  0  0  0  0  0
    2.9190   68.8430   65.8190 C   0  0  0  0  0  0  0  0  0  0  0  0
    3.4220   69.4700   66.9430 C   0  0  0  0  0  0  0  0  0  0  0  0
    4.7560   69.9380   67.2530 C   0  0  0  0  0  0  0  0  0  0  0  0
    4.7450   70.5120   68.5430 C   0  0  0  0  0  0  0  0  0  0  0  0
    3.3540   70.4360   69.1400 C   0  0  0  0  0  0  0  0  0  0  0  0
    2.5760   69.7500   68.0350 C   0  0  0  0  0  0  0  0  0  0  0  0
    1.2290   69.4130   68.0250 C   0  0  0  0  0  0  0  0  0  0  0  0
    5.8900   71.0470   69.1090 C   0  0  0  0  0  0  0  0  0  0  0  0
    7.0690   71.0050   68.3620 C   0  0  0  0  0  0  0  0  0  0  0  0
    7.0870   70.4340   67.0780 C   0  0  0  0  0  0  0  0  0  0  0  0
    5.9260   69.8960   66.5140 C   0  0  0  0  0  0  0  0  0  0  0  0
   -2.7340   67.2420   67.0140 C   0  0  0  0  0  0  0  0  0  0  0  0
   -1.2840   67.3530   67.4170 C   0  0  0  0  0  0  0  0  0  0  0  0
   -0.7950   66.5650   68.2170 O   0  0  0  0  0  0  0  0  0  0  0  0
   -0.6400   68.3890   66.7640 N   0  0  0  0  0  0  0  0  0  0  0  0
    1.1452   68.0018   64.9114 H   0  0  0  0  0  0  0  0  0  0  0  0
    3.5690   68.6186   64.9604 H   0  0  0  0  0  0  0  0  0  0  0  0
    3.3473   69.8390   70.0639 H   0  0  0  0  0  0  0  0  0  0  0  0
    2.9422   71.4131   69.4327 H   0  0  0  0  0  0  0  0  0  0  0  0
    0.5854   69.6404   68.8876 H   0  0  0  0  0  0  0  0  0  0  0  0
    5.8713   71.4910   70.1152 H   0  0  0  0  0  0  0  0  0  0  0  0
    7.9947   71.4238   68.7836 H   0  0  0  0  0  0  0  0  0  0  0  0
    8.0278   70.4099   66.5085 H   0  0  0  0  0  0  0  0  0  0  0  0
    5.9419   69.4506   65.5083 H   0  0  0  0  0  0  0  0  0  0  0  0
   -3.3625   67.1939   67.9155 H   0  0  0  0  0  0  0  0  0  0  0  0
   -3.0168   68.1211   66.4164 H   0  0  0  0  0  0  0  0  0  0  0  0
   -2.8797   66.3301   66.4164 H   0  0  0  0  0  0  0  0  0  0  0  0
   -1.2122   68.9397   66.1081 H   0  0  0  0  0  0  0  0  0  0  0  0
  2  1  2  0
  3  2  1  0
  4  3  2  0
  5  4  1  0
  6  5  2  0
  7  6  1  0
  8  7  1  0
  8  4  1  0
  9  8  2  0
  9  1  1  0
 10  6  1  0
 11 10  2  0
 12 11  1  0
 13  5  1  0
 13 12  2  0
 15 14  1  0
 16 15  2  0
 17 15  1  0
 17  1  1  0
  2 18  1  0
  3 19  1  0
  7 20  1  0
  7 21  1  0
  9 22  1  0
 10 23  1  0
 11 24  1  0
 12 25  1  0
 13 26  1  0
 14 27  1  0
 14 28  1  0
 14 29  1  0
 17 30  1  0
M  END
>  <score>  (1) 
-10.662

$$$$
=
     RDKit          3D

 30 32  0  0  0  0  0  0  0  0999 V2000
    5.3410   69.8670   67.0790 C   0  0  0  0  0  0  0  0  0  0  0  0
    4.0540   69.7730   67.6540 C   0  0  0  0  0  0  0  0  0  0  0  0
    2.9230   69.4780   66.8800 C   0  0  0  0  0  0  0  0  0  0  0  0
    3.0910   69.2770   65.5230 C   0  0  0  0  0  0  0  0  0  0  0  0
    2.1340   68.9630   64.4830 C   0  0  0  0  0  0  0  0  0  0  0  0
    2.8200   68.8610   63.2530 C   0  0  0  0  0  0  0  0  0  0  0  0
    4.3010   69.1130   63.4550 C   0  0  0  0  0  0  0  0  0  0  0  0
    4.3730   69.3720   64.9460 C   0  0  0  0  0  0  0  0  0  0  0  0
    5.4990   69.6630   65.7050 C   0  0  0  0  0  0  0  0  0  0  0  0
    2.1560   68.5670   62.0740 C   0  0  0  0  0  0  0  0  0  0  0  0
    0.7740   68.3730   62.1330 C   0  0  0  0  0  0  0  0  0  0  0  0
    0.0850   68.4730   63.3540 C   0  0  0  0  0  0  0  0  0  0  0  0
    0.7640   68.7700   64.5410 C   0  0  0  0  0  0  0  0  0  0  0  0
    7.9540   71.3350   69.3710 C   0  0  0  0  0  0  0  0  0  0  0  0
    6.7440   71.4070   68.4720 C   0  0  0  0  0  0  0  0  0  0  0  0
    6.1920   72.4790   68.2520 O   0  0  0  0  0  0  0  0  0  0  0  0
    6.4060   70.1710   67.9530 N   0  0  0  0  0  0  0  0  0  0  0  0
    3.9365   69.9353   68.7356 H   0  0  0  0  0  0  0  0  0  0  0  0
    1.9268   69.4083   67.3412 H   0  0  0  0  0  0  0  0  0  0  0  0
    4.8987   68.2339   63.1722 H   0  0  0  0  0  0  0  0  0  0  0  0
    4.7001   69.9341   62.8413 H   0  0  0  0  0  0  0  0  0  0  0  0
    6.4917   69.7314   65.2362 H   0  0  0  0  0  0  0  0  0  0  0  0
    2.6997   68.4887   61.1210 H   0  0  0  0  0  0  0  0  0  0  0  0
    0.2183   68.1392   61.2130 H   0  0  0  0  0  0  0  0  0  0  0  0
   -1.0034   68.3156   63.3768 H   0  0  0  0  0  0  0  0  0  0  0  0
    0.2233   68.8482   65.4957 H   0  0  0  0  0  0  0  0  0  0  0  0
    7.6313   71.3542   70.4224 H   0  0  0  0  0  0  0  0  0  0  0  0
    8.5030   70.4026   69.1729 H   0  0  0  0  0  0  0  0  0  0  0  0
    8.6097   72.1957   69.1729 H   0  0  0  0  0  0  0  0  0  0  0  0
    7.0010   69.3799   68.2376 H   0  0  0  0  0  0  0  0  0  0  0  0
  2  1  2  0
  3  2  1  0
  4  3  2  0
  5  4  1  0
  6  5  2  0
  7  6  1  0
  8  7  1  0
  8  4  1  0
  9  8  2  0
  9  1  1  0
 10  6  1  0
 11 10  2  0
 12 11  1  0
 13  5  1  0
 13 12  2  0
 15 14  1  0
 16 15  2  0
 17 15  1  0
 17  1  1  0
  2 18  1  0
  3 19  1  0
  7 20  1  0
  7 21  1  0
  9 22  1  0
 10 23  1  0
 11 24  1  0
 12 25  1  0
 13 26  1  0
 14 27  1  0
 14 28  1  0
 14 29  1  0
 17 30  1  0
M  END
>  <score>  (2) 
-10.189

$$$$
=
     RDKit          3D

 30 32  0  0  0  0  0  0  0  0999 V2000
    2.1220   68.9830   65.3500 C   0  0  0  0  0  0  0  0  0  0  0  0
    1.6810   69.1290   66.6850 C   0  0  0  0  0  0  0  0  0  0  0  0
    2.5570   69.5150   67.7100 C   0  0  0  0  0  0  0  0  0  0  0  0
    3.8790   69.7530   67.3880 C   0  0  0  0  0  0  0  0  0  0  0  0
    5.0000   70.1570   68.2110 C   0  0  0  0  0  0  0  0  0  0  0  0
    6.1450   70.2640   67.3930 C   0  0  0  0  0  0  0  0  0  0  0  0
    5.8000   69.9230   65.9570 C   0  0  0  0  0  0  0  0  0  0  0  0
    4.3210   69.6080   66.0580 C   0  0  0  0  0  0  0  0  0  0  0  0
    3.4620   69.2270   65.0370 C   0  0  0  0  0  0  0  0  0  0  0  0
    7.3740   70.6360   67.9120 C   0  0  0  0  0  0  0  0  0  0  0  0
    7.4520   70.9050   69.2800 C   0  0  0  0  0  0  0  0  0  0  0  0
    6.3150   70.8010   70.1000 C   0  0  0  0  0  0  0  0  0  0  0  0
    5.0780   70.4240   69.5670 C   0  0  0  0  0  0  0  0  0  0  0  0
    0.0100   68.1310   62.3410 C   0  0  0  0  0  0  0  0  0  0  0  0
    1.2590   68.6350   63.0230 C   0  0  0  0  0  0  0  0  0  0  0  0
    2.2070   69.0470   62.3660 O   0  0  0  0  0  0  0  0  0  0  0  0
    1.1540   68.5900   64.4020 N   0  0  0  0  0  0  0  0  0  0  0  0
    0.6253   68.9352   66.9258 H   0  0  0  0  0  0  0  0  0  0  0  0
    2.2002   69.6255   68.7446 H   0  0  0  0  0  0  0  0  0  0  0  0
    5.9826   70.7768   65.2879 H   0  0  0  0  0  0  0  0  0  0  0  0
    6.4017   69.1032   65.5376 H   0  0  0  0  0  0  0  0  0  0  0  0
    3.8273   69.1195   64.0050 H   0  0  0  0  0  0  0  0  0  0  0  0
    8.2611   70.7170   67.2666 H   0  0  0  0  0  0  0  0  0  0  0  0
    8.4149   71.2019   69.7213 H   0  0  0  0  0  0  0  0  0  0  0  0
    6.3992   71.0190   71.1749 H   0  0  0  0  0  0  0  0  0  0  0  0
    4.1890   70.3417   70.2096 H   0  0  0  0  0  0  0  0  0  0  0  0
   -0.7278   67.8333   63.1006 H   0  0  0  0  0  0  0  0  0  0  0  0
   -0.4122   68.9291   61.7127 H   0  0  0  0  0  0  0  0  0  0  0  0
    0.2600   67.2634   61.7127 H   0  0  0  0  0  0  0  0  0  0  0  0
    0.2669   68.2278   64.7799 H   0  0  0  0  0  0  0  0  0  0  0  0
  2  1  2  0
  3  2  1  0
  4  3  2  0
  5  4  1  0
  6  5  2  0
  7  6  1  0
  8  7  1  0
  8  4  1  0
  9  8  2  0
  9  1  1  0
 10  6  1  0
 11 10  2  0
 12 11  1  0
 13  5  1  0
 13 12  2  0
 15 14  1  0
 16 15  2  0
 17 15  1  0
 17  1  1  0
  2 18  1  0
  3 19  1  0
  7 20  1  0
  7 21  1  0
  9 22  1  0
 10 23  1  0
 11 24  1  0
 12 25  1  0
 13 26  1  0
 14 27  1  0
 14 28  1  0
 14 29  1  0
 17 30  1  0
M  END
>  <score>  (3) 
-9.314

$$$$
=
     RDKit          3D

 30 32  0  0  0  0  0  0  0  0999 V2000
    0.7960   68.7620   66.4280 C   0  0  0  0  0  0  0  0  0  0  0  0
    0.8600   69.2320   67.7590 C   0  0  0  0  0  0  0  0  0  0  0  0
    2.0590   69.6970   68.3170 C   0  0  0  0  0  0  0  0  0  0  0  0
    3.1950   69.6880   67.5310 C   0  0  0  0  0  0  0  0  0  0  0  0
    4.5540   70.0970   67.8190 C   0  0  0  0  0  0  0  0  0  0  0  0
    5.3440   69.8830   66.6680 C   0  0  0  0  0  0  0  0  0  0  0  0
    4.4990   69.3070   65.5500 C   0  0  0  0  0  0  0  0  0  0  0  0
    3.1350   69.2180   66.2030 C   0  0  0  0  0  0  0  0  0  0  0  0
    1.9510   68.7560   65.6430 C   0  0  0  0  0  0  0  0  0  0  0  0
    6.6950   70.1860   66.6500 C   0  0  0  0  0  0  0  0  0  0  0  0
    7.2630   70.7140   67.8120 C   0  0  0  0  0  0  0  0  0  0  0  0
    6.4820   70.9300   68.9600 C   0  0  0  0  0  0  0  0  0  0  0  0
    5.1180   70.6210   68.9700 C   0  0  0  0  0  0  0  0  0  0  0  0
   -2.8140   68.1540   65.5110 C   0  0  0  0  0  0  0  0  0  0  0  0
   -1.6870   68.9390   66.1370 C   0  0  0  0  0  0  0  0  0  0  0  0
   -1.9110   69.9870   66.7310 O   0  0  0  0  0  0  0  0  0  0  0  0
   -0.4630   68.3170   65.9720 N   0  0  0  0  0  0  0  0  0  0  0  0
   -0.0532   69.2330   68.3722 H   0  0  0  0  0  0  0  0  0  0  0  0
    2.0944   70.0600   69.3548 H   0  0  0  0  0  0  0  0  0  0  0  0
    4.4816   69.9755   64.6766 H   0  0  0  0  0  0  0  0  0  0  0  0
    4.8697   68.3466   65.1624 H   0  0  0  0  0  0  0  0  0  0  0  0
    1.9236   68.3936   64.6048 H   0  0  0  0  0  0  0  0  0  0  0  0
    7.3022   70.0162   65.7486 H   0  0  0  0  0  0  0  0  0  0  0  0
    8.3342   70.9636   67.8285 H   0  0  0  0  0  0  0  0  0  0  0  0
    6.9500   71.3480   69.8635 H   0  0  0  0  0  0  0  0  0  0  0  0
    4.5084   70.7900   69.8699 H   0  0  0  0  0  0  0  0  0  0  0  0
   -3.4407   67.7175   66.3026 H   0  0  0  0  0  0  0  0  0  0  0  0
   -3.4246   68.8232   64.8871 H   0  0  0  0  0  0  0  0  0  0  0  0
   -2.3980   67.3492   64.8871 H   0  0  0  0  0  0  0  0  0  0  0  0
   -0.4713   67.4254   65.4564 H   0  0  0  0  0  0  0  0  0  0  0  0
  2  1  2  0
  3  2  1  0
  4  3  2  0
  5  4  1  0
  6  5  2  0
  7  6  1  0
  8  7  1  0
  8  4  1  0
  9  8  2  0
  9  1  1  0
 10  6  1  0
 11 10  2  0
 12 11  1  0
 13  5  1  0
 13 12  2  0
 15 14  1  0
 16 15  2  0
 17 15  1  0
 17  1  1  0
  2 18  1  0
  3 19  1  0
  7 20  1  0
  7 21  1  0
  9 22  1  0
 10 23  1  0
 11 24  1  0
 12 25  1  0
 13 26  1  0
 14 27  1  0
 14 28  1  0
 14 29  1  0
 17 30  1  0
M  END
>  <score>  (4) 
-9.254

$$$$
=
     RDKit          3D

 30 32  0  0  0  0  0  0  0  0999 V2000
   -0.8080   68.9200   64.9800 C   0  0  0  0  0  0  0  0  0  0  0  0
    0.0640   68.8260   66.0880 C   0  0  0  0  0  0  0  0  0  0  0  0
    1.4550   68.7600   65.9250 C   0  0  0  0  0  0  0  0  0  0  0  0
    1.9670   68.7870   64.6420 C   0  0  0  0  0  0  0  0  0  0  0  0
    3.3320   68.7360   64.1630 C   0  0  0  0  0  0  0  0  0  0  0  0
    3.3180   68.7960   62.7520 C   0  0  0  0  0  0  0  0  0  0  0  0
    1.8930   68.8930   62.2440 C   0  0  0  0  0  0  0  0  0  0  0  0
    1.1000   68.8790   63.5350 C   0  0  0  0  0  0  0  0  0  0  0  0
   -0.2780   68.9460   63.6870 C   0  0  0  0  0  0  0  0  0  0  0  0
    4.4890   68.7660   62.0130 C   0  0  0  0  0  0  0  0  0  0  0  0
    5.6980   68.6720   62.7070 C   0  0  0  0  0  0  0  0  0  0  0  0
    5.7190   68.6130   64.1110 C   0  0  0  0  0  0  0  0  0  0  0  0
    4.5310   68.6440   64.8490 C   0  0  0  0  0  0  0  0  0  0  0  0
   -4.3560   68.6010   66.2230 C   0  0  0  0  0  0  0  0  0  0  0  0
   -2.8840   68.2710   66.2260 C   0  0  0  0  0  0  0  0  0  0  0  0
   -2.4310   67.4390   67.0030 O   0  0  0  0  0  0  0  0  0  0  0  0
   -2.1890   68.9790   65.2620 N   0  0  0  0  0  0  0  0  0  0  0  0
   -0.3589   68.8041   67.1032 H   0  0  0  0  0  0  0  0  0  0  0  0
    2.1220   68.6885   66.7968 H   0  0  0  0  0  0  0  0  0  0  0  0
    1.7302   69.8260   61.6845 H   0  0  0  0  0  0  0  0  0  0  0  0
    1.6154   68.0922   61.5428 H   0  0  0  0  0  0  0  0  0  0  0  0
   -0.9379   69.0179   62.8099 H   0  0  0  0  0  0  0  0  0  0  0  0
    4.4679   68.8146   60.9143 H   0  0  0  0  0  0  0  0  0  0  0  0
    6.6448   68.6438   62.1477 H   0  0  0  0  0  0  0  0  0  0  0  0
    6.6826   68.5415   64.6367 H   0  0  0  0  0  0  0  0  0  0  0  0
    4.5491   68.5964   65.9478 H   0  0  0  0  0  0  0  0  0  0  0  0
   -4.7158   68.6817   67.2594 H   0  0  0  0  0  0  0  0  0  0  0  0
   -4.5163   69.5574   65.7037 H   0  0  0  0  0  0  0  0  0  0  0  0
   -4.9093   67.8046   65.7037 H   0  0  0  0  0  0  0  0  0  0  0  0
   -2.7445   69.6244   64.6826 H   0  0  0  0  0  0  0  0  0  0  0  0
  2  1  2  0
  3  2  1  0
  4  3  2  0
  5  4  1  0
  6  5  2  0
  7  6  1  0
  8  7  1  0
  8  4  1  0
  9  8  2  0
  9  1  1  0
 10  6  1  0
 11 10  2  0
 12 11  1  0
 13  5  1  0
 13 12  2  0
 15 14  1  0
 16 15  2  0
 17 15  1  0
 17  1  1  0
  2 18  1  0
  3 19  1  0
  7 20  1  0
  7 21  1  0
  9 22  1  0
 10 23  1  0
 11 24  1  0
 12 25  1  0
 13 26  1  0
 14 27  1  0
 14 28  1  0
 14 29  1  0
 17 30  1  0
M  END
>  <score>  (5) 
-8.242

$$$$
=
     RDKit          3D

 30 32  0  0  0  0  0  0  0  0999 V2000
    1.1800   67.7050   67.5930 C   0  0  0  0  0  0  0  0  0  0  0  0
    0.4680   67.3340   66.4300 C   0  0  0  0  0  0  0  0  0  0  0  0
    0.9870   67.5590   65.1470 C   0  0  0  0  0  0  0  0  0  0  0  0
    2.2260   68.1600   65.0370 C   0  0  0  0  0  0  0  0  0  0  0  0
    3.0090   68.5170   63.8720 C   0  0  0  0  0  0  0  0  0  0  0  0
    4.2140   69.1130   64.3040 C   0  0  0  0  0  0  0  0  0  0  0  0
    4.2610   69.1690   65.8170 C   0  0  0  0  0  0  0  0  0  0  0  0
    2.9380   68.5330   66.1940 C   0  0  0  0  0  0  0  0  0  0  0  0
    2.4320   68.3130   67.4690 C   0  0  0  0  0  0  0  0  0  0  0  0
    5.1660   69.5580   63.4020 C   0  0  0  0  0  0  0  0  0  0  0  0
    4.9000   69.4000   62.0390 C   0  0  0  0  0  0  0  0  0  0  0  0
    3.7030   68.8060   61.6040 C   0  0  0  0  0  0  0  0  0  0  0  0
    2.7470   68.3600   62.5220 C   0  0  0  0  0  0  0  0  0  0  0  0
   -0.0610   66.4080   70.9110 C   0  0  0  0  0  0  0  0  0  0  0  0
    0.8020   66.3620   69.6750 C   0  0  0  0  0  0  0  0  0  0  0  0
    1.5860   65.4380   69.4940 O   0  0  0  0  0  0  0  0  0  0  0  0
    0.5620   67.4310   68.8310 N   0  0  0  0  0  0  0  0  0  0  0  0
   -0.5177   66.8569   66.5338 H   0  0  0  0  0  0  0  0  0  0  0  0
    0.4217   67.2643   64.2505 H   0  0  0  0  0  0  0  0  0  0  0  0
    5.1097   68.5918   66.2127 H   0  0  0  0  0  0  0  0  0  0  0  0
    4.3979   70.1832   66.2204 H   0  0  0  0  0  0  0  0  0  0  0  0
    3.0038   68.6106   68.3604 H   0  0  0  0  0  0  0  0  0  0  0  0
    6.1020   70.0212   63.7474 H   0  0  0  0  0  0  0  0  0  0  0  0
    5.6363   69.7447   61.2980 H   0  0  0  0  0  0  0  0  0  0  0  0
    3.5154   68.6902   60.5263 H   0  0  0  0  0  0  0  0  0  0  0  0
    1.8102   67.8960   62.1798 H   0  0  0  0  0  0  0  0  0  0  0  0
    0.5779   66.3739   71.8058 H   0  0  0  0  0  0  0  0  0  0  0  0
   -0.6474   67.3387   70.9144 H   0  0  0  0  0  0  0  0  0  0  0  0
   -0.7430   65.5449   70.9144 H   0  0  0  0  0  0  0  0  0  0  0  0
   -0.1511   68.1057   69.1428 H   0  0  0  0  0  0  0  0  0  0  0  0
  2  1  2  0
  3  2  1  0
  4  3  2  0
  5  4  1  0
  6  5  2  0
  7  6  1  0
  8  7  1  0
  8  4  1  0
  9  8  2  0
  9  1  1  0
 10  6  1  0
 11 10  2  0
 12 11  1  0
 13  5  1  0
 13 12  2  0
 15 14  1  0
 16 15  2  0
 17 15  1  0
 17  1  1  0
  2 18  1  0
  3 19  1  0
  7 20  1  0
  7 21  1  0
  9 22  1  0
 10 23  1  0
 11 24  1  0
 12 25  1  0
 13 26  1  0
 14 27  1  0
 14 28  1  0
 14 29  1  0
 17 30  1  0
M  END
>  <score>  (6) 
-8.101

$$$$
=
     RDKit          3D

 30 32  0  0  0  0  0  0  0  0999 V2000
    1.2760   65.9460   70.1410 C   0  0  0  0  0  0  0  0  0  0  0  0
    0.1480   65.6960   70.9540 C   0  0  0  0  0  0  0  0  0  0  0  0
   -0.0420   64.4610   71.5880 C   0  0  0  0  0  0  0  0  0  0  0  0
    0.9080   63.4750   71.4020 C   0  0  0  0  0  0  0  0  0  0  0  0
    0.9880   62.1230   71.9140 C   0  0  0  0  0  0  0  0  0  0  0  0
    2.1670   61.5220   71.4220 C   0  0  0  0  0  0  0  0  0  0  0  0
    2.9240   62.4960   70.5400 C   0  0  0  0  0  0  0  0  0  0  0  0
    2.0330   63.7200   70.5900 C   0  0  0  0  0  0  0  0  0  0  0  0
    2.2300   64.9410   69.9590 C   0  0  0  0  0  0  0  0  0  0  0  0
    2.5090   60.2210   71.7480 C   0  0  0  0  0  0  0  0  0  0  0  0
    1.6470   59.5090   72.5860 C   0  0  0  0  0  0  0  0  0  0  0  0
    0.4720   60.1010   73.0800 C   0  0  0  0  0  0  0  0  0  0  0  0
    0.1350   61.4170   72.7450 C   0  0  0  0  0  0  0  0  0  0  0  0
    1.2260   69.0580   68.0070 C   0  0  0  0  0  0  0  0  0  0  0  0
    0.9680   67.5960   68.2800 C   0  0  0  0  0  0  0  0  0  0  0  0
    0.4850   66.8750   67.4150 O   0  0  0  0  0  0  0  0  0  0  0  0
    1.3630   67.2260   69.5520 N   0  0  0  0  0  0  0  0  0  0  0  0
   -0.5998   66.4907   71.0928 H   0  0  0  0  0  0  0  0  0  0  0  0
   -0.9255   64.2809   72.2181 H   0  0  0  0  0  0  0  0  0  0  0  0
    3.9229   62.7113   70.9472 H   0  0  0  0  0  0  0  0  0  0  0  0
    3.1093   62.1224   69.5221 H   0  0  0  0  0  0  0  0  0  0  0  0
    3.1162   65.1133   69.3305 H   0  0  0  0  0  0  0  0  0  0  0  0
    3.4302   59.7622   71.3597 H   0  0  0  0  0  0  0  0  0  0  0  0
    1.8910   58.4726   72.8624 H   0  0  0  0  0  0  0  0  0  0  0  0
   -0.1917   59.5219   73.7389 H   0  0  0  0  0  0  0  0  0  0  0  0
   -0.7850   61.8792   73.1323 H   0  0  0  0  0  0  0  0  0  0  0  0
    1.3213   69.5978   68.9607 H   0  0  0  0  0  0  0  0  0  0  0  0
    2.1569   69.1647   67.4307 H   0  0  0  0  0  0  0  0  0  0  0  0
    0.3879   69.4769   67.4307 H   0  0  0  0  0  0  0  0  0  0  0  0
    1.7676   67.9703   70.1378 H   0  0  0  0  0  0  0  0  0  0  0  0
  2  1  2  0
  3  2  1  0
  4  3  2  0
  5  4  1  0
  6  5  2  0
  7  6  1  0
  8  7  1  0
  8  4  1  0
  9  8  2  0
  9  1  1  0
 10  6  1  0
 11 10  2  0
 12 11  1  0
 13  5  1  0
 13 12  2  0
 15 14  1  0
 16 15  2  0
 17 15  1  0
 17  1  1  0
  2 18  1  0
  3 19  1  0
  7 20  1  0
  7 21  1  0
  9 22  1  0
 10 23  1  0
 11 24  1  0
 12 25  1  0
 13 26  1  0
 14 27  1  0
 14 28  1  0
 14 29  1  0
 17 30  1  0
M  END
>  <score>  (7) 
-8.092

$$$$
=
     RDKit          3D

 30 32  0  0  0  0  0  0  0  0999 V2000
    1.5160   64.6200   70.5250 C   0  0  0  0  0  0  0  0  0  0  0  0
    2.6360   63.7670   70.4090 C   0  0  0  0  0  0  0  0  0  0  0  0
    2.6410   62.4800   70.9650 C   0  0  0  0  0  0  0  0  0  0  0  0
    1.5140   62.0540   71.6410 C   0  0  0  0  0  0  0  0  0  0  0  0
    1.2230   60.8040   72.3110 C   0  0  0  0  0  0  0  0  0  0  0  0
   -0.0810   60.8720   72.8490 C   0  0  0  0  0  0  0  0  0  0  0  0
   -0.7080   62.2160   72.5380 C   0  0  0  0  0  0  0  0  0  0  0  0
    0.3950   62.9030   71.7600 C   0  0  0  0  0  0  0  0  0  0  0  0
    0.3820   64.1790   71.2110 C   0  0  0  0  0  0  0  0  0  0  0  0
   -0.6320   59.8120   73.5500 C   0  0  0  0  0  0  0  0  0  0  0  0
    0.1430   58.6620   73.7130 C   0  0  0  0  0  0  0  0  0  0  0  0
    1.4410   58.5870   73.1790 C   0  0  0  0  0  0  0  0  0  0  0  0
    1.9900   59.6630   72.4730 C   0  0  0  0  0  0  0  0  0  0  0  0
    1.1620   67.8900   68.6750 C   0  0  0  0  0  0  0  0  0  0  0  0
    0.6840   66.5360   69.1390 C   0  0  0  0  0  0  0  0  0  0  0  0
   -0.4120   66.1090   68.7970 O   0  0  0  0  0  0  0  0  0  0  0  0
    1.6230   65.8930   69.9260 N   0  0  0  0  0  0  0  0  0  0  0  0
    3.5264   64.1214   69.8690 H   0  0  0  0  0  0  0  0  0  0  0  0
    3.5199   61.8261   70.8655 H   0  0  0  0  0  0  0  0  0  0  0  0
   -1.6165   62.1021   71.9283 H   0  0  0  0  0  0  0  0  0  0  0  0
   -1.0348   62.7709   73.4298 H   0  0  0  0  0  0  0  0  0  0  0  0
   -0.5008   64.8271   71.3141 H   0  0  0  0  0  0  0  0  0  0  0  0
   -1.6486   59.8742   73.9654 H   0  0  0  0  0  0  0  0  0  0  0  0
   -0.2673   57.8042   74.2661 H   0  0  0  0  0  0  0  0  0  0  0  0
    2.0330   57.6703   73.3180 H   0  0  0  0  0  0  0  0  0  0  0  0
    3.0065   59.6037   72.0567 H   0  0  0  0  0  0  0  0  0  0  0  0
    1.3843   68.5197   69.5491 H   0  0  0  0  0  0  0  0  0  0  0  0
    2.0720   67.7697   68.0688 H   0  0  0  0  0  0  0  0  0  0  0  0
    0.3782   68.3676   68.0688 H   0  0  0  0  0  0  0  0  0  0  0  0
    2.5021   66.4028   70.0941 H   0  0  0  0  0  0  0  0  0  0  0  0
  2  1  2  0
  3  2  1  0
  4  3  2  0
  5  4  1  0
  6  5  2  0
  7  6  1  0
  8  7  1  0
  8  4  1  0
  9  8  2  0
  9  1  1  0
 10  6  1  0
 11 10  2  0
 12 11  1  0
 13  5  1  0
 13 12  2  0
 15 14  1  0
 16 15  2  0
 17 15  1  0
 17  1  1  0
  2 18  1  0
  3 19  1  0
  7 20  1  0
  7 21  1  0
  9 22  1  0
 10 23  1  0
 11 24  1  0
 12 25  1  0
 13 26  1  0
 14 27  1  0
 14 28  1  0
 14 29  1  0
 17 30  1  0
M  END
>  <score>  (8) 
-8.002

$$$$
=
     RDKit          3D

 30 32  0  0  0  0  0  0  0  0999 V2000
    2.2770   57.6780   72.7490 C   0  0  0  0  0  0  0  0  0  0  0  0
    1.7340   58.7670   73.4670 C   0  0  0  0  0  0  0  0  0  0  0  0
    1.8180   60.0810   72.9860 C   0  0  0  0  0  0  0  0  0  0  0  0
    2.4510   60.2970   71.7770 C   0  0  0  0  0  0  0  0  0  0  0  0
    2.6910   61.5170   71.0350 C   0  0  0  0  0  0  0  0  0  0  0  0
    3.3850   61.1940   69.8480 C   0  0  0  0  0  0  0  0  0  0  0  0
    3.6320   59.7010   69.7720 C   0  0  0  0  0  0  0  0  0  0  0  0
    2.9940   59.2130   71.0580 C   0  0  0  0  0  0  0  0  0  0  0  0
    2.9150   57.9090   71.5270 C   0  0  0  0  0  0  0  0  0  0  0  0
    3.7520   62.1690   68.9350 C   0  0  0  0  0  0  0  0  0  0  0  0
    3.4140   63.4930   69.2210 C   0  0  0  0  0  0  0  0  0  0  0  0
    2.7220   63.8210   70.4000 C   0  0  0  0  0  0  0  0  0  0  0  0
    2.3550   62.8300   71.3170 C   0  0  0  0  0  0  0  0  0  0  0  0
    1.2120   54.3690   74.2160 C   0  0  0  0  0  0  0  0  0  0  0  0
    0.9600   55.7140   73.5790 C   0  0  0  0  0  0  0  0  0  0  0  0
   -0.1820   56.0980   73.3620 O   0  0  0  0  0  0  0  0  0  0  0  0
    2.1350   56.4000   73.3290 N   0  0  0  0  0  0  0  0  0  0  0  0
    1.2326   58.5789   74.4278 H   0  0  0  0  0  0  0  0  0  0  0  0
    1.3908   60.9188   73.5566 H   0  0  0  0  0  0  0  0  0  0  0  0
    3.1443   59.2591   68.8906 H   0  0  0  0  0  0  0  0  0  0  0  0
    4.6935   59.4305   69.6717 H   0  0  0  0  0  0  0  0  0  0  0  0
    3.3446   57.0766   70.9503 H   0  0  0  0  0  0  0  0  0  0  0  0
    4.2929   61.9082   68.0134 H   0  0  0  0  0  0  0  0  0  0  0  0
    3.6926   64.2894   68.5152 H   0  0  0  0  0  0  0  0  0  0  0  0
    2.4656   64.8710   70.6043 H   0  0  0  0  0  0  0  0  0  0  0  0
    1.8131   63.0877   72.2389 H   0  0  0  0  0  0  0  0  0  0  0  0
    1.1926   54.4725   75.3110 H   0  0  0  0  0  0  0  0  0  0  0  0
    0.4307   53.6618   73.9006 H   0  0  0  0  0  0  0  0  0  0  0  0
    2.1963   53.9926   73.9006 H   0  0  0  0  0  0  0  0  0  0  0  0
    3.0071   55.9223   73.5974 H   0  0  0  0  0  0  0  0  0  0  0  0
  2  1  2  0
  3  2  1  0
  4  3  2  0
  5  4  1  0
  6  5  2  0
  7  6  1  0
  8  7  1  0
  8  4  1  0
  9  8  2  0
  9  1  1  0
 10  6  1  0
 11 10  2  0
 12 11  1  0
 13  5  1  0
 13 12  2  0
 15 14  1  0
 16 15  2  0
 17 15  1  0
 17  1  1  0
  2 18  1  0
  3 19  1  0
  7 20  1  0
  7 21  1  0
  9 22  1  0
 10 23  1  0
 11 24  1  0
 12 25  1  0
 13 26  1  0
 14 27  1  0
 14 28  1  0
 14 29  1  0
 17 30  1  0
M  END
>  <score>  (9) 
-7.857

$$$$
