=
     RDKit          3D

 59 62  0  0  0  0  0  0  0  0999 V2000
    0.8770   65.9790   70.6300 O   0  0  0  0  0  0  0  0  0  0  0  0
    2.9590   61.5670   73.2840 C   0  0  0  0  0  0  0  0  0  0  0  0
    1.9050   62.4730   73.4250 C   0  0  0  0  0  0  0  0  0  0  0  0
    1.4640   63.1260   72.2880 C   0  0  0  0  0  0  0  0  0  0  0  0
    2.0140   62.9200   71.0330 C   0  0  0  0  0  0  0  0  0  0  0  0
    3.0570   62.0190   70.8750 C   0  0  0  0  0  0  0  0  0  0  0  0
    3.5400   61.3400   72.0040 C   0  0  0  0  0  0  0  0  0  0  0  0
    1.3210   63.7120   69.9680 C   0  0  0  0  0  0  0  0  0  0  0  0
    0.3650   64.6560   70.7430 C   0  0  1  0  0  0  0  0  0  0  0  0
    0.4000   64.1130   72.1720 C   0  0  0  0  0  0  0  0  0  0  0  0
   -0.3190   64.4400   73.1020 O   0  0  0  0  0  0  0  0  0  0  0  0
    2.6890   59.8690   74.9480 C   0  0  0  0  0  0  0  0  0  0  0  0
    3.5040   60.8500   74.3220 O   0  0  0  0  0  0  0  0  0  0  0  0
    4.5680   60.4300   71.9730 O   0  0  0  0  0  0  0  0  0  0  0  0
    5.7810   60.8160   71.3440 C   0  0  0  0  0  0  0  0  0  0  0  0
    0.5810   66.7180   69.5220 C   0  0  0  0  0  0  0  0  0  0  0  0
    1.3770   67.7000   68.9420 C   0  0  0  0  0  0  0  0  0  0  0  0
    0.9530   68.3650   67.7820 C   0  0  0  0  0  0  0  0  0  0  0  0
   -0.2770   68.0600   67.1830 C   0  0  0  0  0  0  0  0  0  0  0  0
   -1.0820   67.0810   67.7880 C   0  0  0  0  0  0  0  0  0  0  0  0
   -0.6530   66.4210   68.9430 C   0  0  0  0  0  0  0  0  0  0  0  0
   -0.7820   68.7640   65.9350 C   0  0  2  0  0  0  0  0  0  0  0  0
   -2.3060   68.7940   65.7690 C   0  0  0  0  0  0  0  0  0  0  0  0
   -0.0920   68.2300   64.6750 N   0  0  0  0  0  4  0  0  0  0  0  0
    1.3270   67.7420   64.9040 C   0  0  0  0  0  0  0  0  0  0  0  0
    2.3320   68.6360   64.1980 C   0  0  0  0  0  0  0  0  0  0  0  0
    2.0930   68.6830   62.6910 C   0  0  0  0  0  0  0  0  0  0  0  0
    0.6160   68.5630   62.3210 C   0  0  0  0  0  0  0  0  0  0  0  0
   -0.2860   69.0790   63.4310 C   0  0  0  0  0  0  0  0  0  0  0  0
    1.4423   62.6604   74.4052 H   0  0  0  0  0  0  0  0  0  0  0  0
    3.4973   61.8402   69.8829 H   0  0  0  0  0  0  0  0  0  0  0  0
    2.0478   64.2922   69.3804 H   0  0  0  0  0  0  0  0  0  0  0  0
    0.7851   63.0706   69.2529 H   0  0  0  0  0  0  0  0  0  0  0  0
   -0.6708   64.6913   70.3744 H   0  0  0  0  0  0  0  0  0  0  0  0
    2.7707   59.9673   76.0405 H   0  0  0  0  0  0  0  0  0  0  0  0
    1.6418   60.0140   74.6441 H   0  0  0  0  0  0  0  0  0  0  0  0
    3.0235   58.8661   74.6441 H   0  0  0  0  0  0  0  0  0  0  0  0
    6.5320   61.0550   72.1113 H   0  0  0  0  0  0  0  0  0  0  0  0
    6.1477   59.9902   70.7167 H   0  0  0  0  0  0  0  0  0  0  0  0
    5.6030   61.7019   70.7167 H   0  0  0  0  0  0  0  0  0  0  0  0
    2.3455   67.9569   69.3959 H   0  0  0  0  0  0  0  0  0  0  0  0
    1.5958   69.1379   67.3354 H   0  0  0  0  0  0  0  0  0  0  0  0
   -2.0591   66.8313   67.3488 H   0  0  0  0  0  0  0  0  0  0  0  0
   -1.2974   65.6567   69.4019 H   0  0  0  0  0  0  0  0  0  0  0  0
   -0.5010   69.8176   66.0799 H   0  0  0  0  0  0  0  0  0  0  0  0
   -2.7827   68.8034   66.7603 H   0  0  0  0  0  0  0  0  0  0  0  0
   -2.5966   69.6980   65.2138 H   0  0  0  0  0  0  0  0  0  0  0  0
   -2.6320   67.9021   65.2138 H   0  0  0  0  0  0  0  0  0  0  0  0
   -0.6147   67.3716   64.4497 H   0  0  0  0  0  0  0  0  0  0  0  0
    1.5386   67.7457   65.9834 H   0  0  0  0  0  0  0  0  0  0  0  0
    1.4171   66.7243   64.4965 H   0  0  0  0  0  0  0  0  0  0  0  0
    2.2475   69.6551   64.6033 H   0  0  0  0  0  0  0  0  0  0  0  0
    3.3364   68.2221   64.3708 H   0  0  0  0  0  0  0  0  0  0  0  0
    2.4754   69.6392   62.3043 H   0  0  0  0  0  0  0  0  0  0  0  0
    2.6163   67.8238   62.2461 H   0  0  0  0  0  0  0  0  0  0  0  0
    0.4285   69.1480   61.4085 H   0  0  0  0  0  0  0  0  0  0  0  0
    0.3881   67.4988   62.1611 H   0  0  0  0  0  0  0  0  0  0  0  0
   -0.0289   70.1245   63.6565 H   0  0  0  0  0  0  0  0  0  0  0  0
   -1.3358   69.0218   63.1075 H   0  0  0  0  0  0  0  0  0  0  0  0
  3  2  2  0
  4  3  1  0
  5  4  2  0
  6  5  1  0
  7  6  2  0
  7  2  1  0
  8  5  1  0
  9  8  1  0
  9  1  1  0
 10  9  1  0
 10  4  1  0
 11 10  2  0
 13 12  1  0
 13  2  1  0
 14  7  1  0
 15 14  1  0
 16  1  1  0
 17 16  2  0
 18 17  1  0
 19 18  2  0
 20 19  1  0
 21 20  2  0
 21 16  1  0
 22 19  1  0
 23 22  1  0
 24 22  1  0
 25 24  1  0
 26 25  1  0
 27 26  1  0
 28 27  1  0
 29 28  1  0
 29 24  1  0
  3 30  1  0
  6 31  1  0
  8 32  1  0
  8 33  1  0
  9 34  1  6
 12 35  1  0
 12 36  1  0
 12 37  1  0
 15 38  1  0
 15 39  1  0
 15 40  1  0
 17 41  1  0
 18 42  1  0
 20 43  1  0
 21 44  1  0
 22 45  1  1
 23 46  1  0
 23 47  1  0
 23 48  1  0
 24 49  1  0
 25 50  1  0
 25 51  1  0
 26 52  1  0
 26 53  1  0
 27 54  1  0
 27 55  1  0
 28 56  1  0
 28 57  1  0
 29 58  1  0
 29 59  1  0
M  CHG  1  24   1
M  END
>  <score>  (1) 
-10.058

$$$$
=
     RDKit          3D

 59 62  0  0  0  0  0  0  0  0999 V2000
   -0.2230   64.9310   69.5130 O   0  0  0  0  0  0  0  0  0  0  0  0
    0.6270   68.6280   65.4560 C   0  0  0  0  0  0  0  0  0  0  0  0
   -0.4400   68.1120   66.1960 C   0  0  0  0  0  0  0  0  0  0  0  0
   -0.1540   67.5580   67.4310 C   0  0  0  0  0  0  0  0  0  0  0  0
    1.1260   67.4960   67.9580 C   0  0  0  0  0  0  0  0  0  0  0  0
    2.1940   68.0100   67.2380 C   0  0  0  0  0  0  0  0  0  0  0  0
    1.9500   68.5760   65.9770 C   0  0  0  0  0  0  0  0  0  0  0  0
    1.1510   66.8940   69.3290 C   0  0  0  0  0  0  0  0  0  0  0  0
   -0.2860   66.3520   69.5450 C   0  0  1  0  0  0  0  0  0  0  0  0
   -1.0760   66.9500   68.3800 C   0  0  0  0  0  0  0  0  0  0  0  0
   -2.2860   66.9290   68.2230 O   0  0  0  0  0  0  0  0  0  0  0  0
    0.2820   68.3430   63.1050 C   0  0  0  0  0  0  0  0  0  0  0  0
    0.4970   69.2040   64.2150 O   0  0  0  0  0  0  0  0  0  0  0  0
    2.9260   69.1110   65.1730 O   0  0  0  0  0  0  0  0  0  0  0  0
    4.1680   69.4550   65.7700 C   0  0  0  0  0  0  0  0  0  0  0  0
    0.4850   64.2720   70.4750 C   0  0  0  0  0  0  0  0  0  0  0  0
    0.2400   64.2920   71.8450 C   0  0  0  0  0  0  0  0  0  0  0  0
    1.0380   63.5410   72.7200 C   0  0  0  0  0  0  0  0  0  0  0  0
    2.0990   62.7590   72.2410 C   0  0  0  0  0  0  0  0  0  0  0  0
    2.3490   62.7620   70.8590 C   0  0  0  0  0  0  0  0  0  0  0  0
    1.5490   63.5110   69.9910 C   0  0  0  0  0  0  0  0  0  0  0  0
    2.9970   61.9420   73.1530 C   0  0  2  0  0  0  0  0  0  0  0  0
    4.3510   61.5440   72.5550 C   0  0  0  0  0  0  0  0  0  0  0  0
    2.2570   60.7270   73.7230 N   0  0  0  0  0  4  0  0  0  0  0  0
    2.8790   60.1580   74.9850 C   0  0  0  0  0  0  0  0  0  0  0  0
    3.4580   58.7770   74.7330 C   0  0  0  0  0  0  0  0  0  0  0  0
    2.3940   57.7920   74.2520 C   0  0  0  0  0  0  0  0  0  0  0  0
    1.3120   58.4560   73.4050 C   0  0  0  0  0  0  0  0  0  0  0  0
    1.8350   59.6950   72.6940 C   0  0  0  0  0  0  0  0  0  0  0  0
   -1.4698   68.1451   65.8107 H   0  0  0  0  0  0  0  0  0  0  0  0
    3.2142   67.9747   67.6479 H   0  0  0  0  0  0  0  0  0  0  0  0
    1.8859   66.0772   69.3810 H   0  0  0  0  0  0  0  0  0  0  0  0
    1.4418   67.6233   70.0994 H   0  0  0  0  0  0  0  0  0  0  0  0
   -0.7569   66.6198   70.5024 H   0  0  0  0  0  0  0  0  0  0  0  0
    0.0303   67.3350   63.4662 H   0  0  0  0  0  0  0  0  0  0  0  0
   -0.5467   68.7314   62.4948 H   0  0  0  0  0  0  0  0  0  0  0  0
    1.1960   68.2962   62.4948 H   0  0  0  0  0  0  0  0  0  0  0  0
    4.0685   69.4274   66.8651 H   0  0  0  0  0  0  0  0  0  0  0  0
    4.9384   68.7364   65.4536 H   0  0  0  0  0  0  0  0  0  0  0  0
    4.4589   70.4675   65.4536 H   0  0  0  0  0  0  0  0  0  0  0  0
   -0.5848   64.9008   72.2439 H   0  0  0  0  0  0  0  0  0  0  0  0
    0.8284   63.5657   73.7996 H   0  0  0  0  0  0  0  0  0  0  0  0
    3.1829   62.1689   70.4554 H   0  0  0  0  0  0  0  0  0  0  0  0
    1.7615   63.5000   68.9118 H   0  0  0  0  0  0  0  0  0  0  0  0
    3.2509   62.6262   73.9761 H   0  0  0  0  0  0  0  0  0  0  0  0
    5.0631   61.3347   73.3669 H   0  0  0  0  0  0  0  0  0  0  0  0
    4.2275   60.6442   71.9345 H   0  0  0  0  0  0  0  0  0  0  0  0
    4.7341   62.3675   71.9345 H   0  0  0  0  0  0  0  0  0  0  0  0
    1.3566   61.1113   74.0433 H   0  0  0  0  0  0  0  0  0  0  0  0
    3.6827   60.8285   75.3235 H   0  0  0  0  0  0  0  0  0  0  0  0
    2.0966   60.0744   75.7537 H   0  0  0  0  0  0  0  0  0  0  0  0
    4.2429   58.8550   73.9663 H   0  0  0  0  0  0  0  0  0  0  0  0
    3.8667   58.4004   75.6823 H   0  0  0  0  0  0  0  0  0  0  0  0
    2.8834   57.0129   73.6491 H   0  0  0  0  0  0  0  0  0  0  0  0
    1.9051   57.3718   75.1433 H   0  0  0  0  0  0  0  0  0  0  0  0
    0.9568   57.7365   72.6526 H   0  0  0  0  0  0  0  0  0  0  0  0
    0.4943   58.7638   74.0733 H   0  0  0  0  0  0  0  0  0  0  0  0
    2.6999   59.4229   72.0712 H   0  0  0  0  0  0  0  0  0  0  0  0
    1.0426   60.1146   72.0569 H   0  0  0  0  0  0  0  0  0  0  0  0
  3  2  2  0
  4  3  1  0
  5  4  2  0
  6  5  1  0
  7  6  2  0
  7  2  1  0
  8  5  1  0
  9  8  1  0
  9  1  1  0
 10  9  1  0
 10  4  1  0
 11 10  2  0
 13 12  1  0
 13  2  1  0
 14  7  1  0
 15 14  1  0
 16  1  1  0
 17 16  2  0
 18 17  1  0
 19 18  2  0
 20 19  1  0
 21 20  2  0
 21 16  1  0
 22 19  1  0
 23 22  1  0
 24 22  1  0
 25 24  1  0
 26 25  1  0
 27 26  1  0
 28 27  1  0
 29 28  1  0
 29 24  1  0
  3 30  1  0
  6 31  1  0
  8 32  1  0
  8 33  1  0
  9 34  1  1
 12 35  1  0
 12 36  1  0
 12 37  1  0
 15 38  1  0
 15 39  1  0
 15 40  1  0
 17 41  1  0
 18 42  1  0
 20 43  1  0
 21 44  1  0
 22 45  1  1
 23 46  1  0
 23 47  1  0
 23 48  1  0
 24 49  1  0
 25 50  1  0
 25 51  1  0
 26 52  1  0
 26 53  1  0
 27 54  1  0
 27 55  1  0
 28 56  1  0
 28 57  1  0
 29 58  1  0
 29 59  1  0
M  CHG  1  24   1
M  END
>  <score>  (2) 
-9.414

$$$$
=
     RDKit          3D

 59 62  0  0  0  0  0  0  0  0999 V2000
    0.1430   64.3740   70.4670 O   0  0  0  0  0  0  0  0  0  0  0  0
    2.2430   59.5540   72.2590 C   0  0  0  0  0  0  0  0  0  0  0  0
    2.6920   60.7360   71.6640 C   0  0  0  0  0  0  0  0  0  0  0  0
    1.9130   61.8680   71.8190 C   0  0  0  0  0  0  0  0  0  0  0  0
    0.7240   61.8800   72.5320 C   0  0  0  0  0  0  0  0  0  0  0  0
    0.2680   60.7170   73.1330 C   0  0  0  0  0  0  0  0  0  0  0  0
    1.0240   59.5430   72.9960 C   0  0  0  0  0  0  0  0  0  0  0  0
    0.1060   63.2430   72.5880 C   0  0  0  0  0  0  0  0  0  0  0  0
    0.9500   64.0970   71.6060 C   0  0  1  0  0  0  0  0  0  0  0  0
    2.1520   63.2050   71.2940 C   0  0  0  0  0  0  0  0  0  0  0  0
    3.1650   63.5180   70.6890 O   0  0  0  0  0  0  0  0  0  0  0  0
    3.3730   57.9300   70.9130 C   0  0  0  0  0  0  0  0  0  0  0  0
    2.9060   58.3530   72.1880 O   0  0  0  0  0  0  0  0  0  0  0  0
    0.6730   58.3330   73.5430 O   0  0  0  0  0  0  0  0  0  0  0  0
    0.7670   58.1860   74.9520 C   0  0  0  0  0  0  0  0  0  0  0  0
    0.3100   65.5530   69.8020 C   0  0  0  0  0  0  0  0  0  0  0  0
    1.4060   66.4050   69.8850 C   0  0  0  0  0  0  0  0  0  0  0  0
    1.4530   67.5790   69.1190 C   0  0  0  0  0  0  0  0  0  0  0  0
    0.4010   67.9240   68.2590 C   0  0  0  0  0  0  0  0  0  0  0  0
   -0.7100   67.0670   68.1980 C   0  0  0  0  0  0  0  0  0  0  0  0
   -0.7500   65.8970   68.9620 C   0  0  0  0  0  0  0  0  0  0  0  0
    0.4030   69.1920   67.4220 C   0  0  2  0  0  0  0  0  0  0  0  0
   -0.9780   69.6880   66.9800 C   0  0  0  0  0  0  0  0  0  0  0  0
    1.3640   69.0750   66.2350 N   0  0  0  0  0  4  0  0  0  0  0  0
    1.0670   67.9110   65.3080 C   0  0  0  0  0  0  0  0  0  0  0  0
    2.1690   66.8680   65.3710 C   0  0  0  0  0  0  0  0  0  0  0  0
    3.5250   67.4470   64.9720 C   0  0  0  0  0  0  0  0  0  0  0  0
    3.6820   68.9130   65.3670 C   0  0  0  0  0  0  0  0  0  0  0  0
    2.8310   69.2650   66.5770 C   0  0  0  0  0  0  0  0  0  0  0  0
    3.6316   60.7649   71.0927 H   0  0  0  0  0  0  0  0  0  0  0  0
   -0.6702   60.7146   73.7073 H   0  0  0  0  0  0  0  0  0  0  0  0
   -0.9451   63.2062   72.2657 H   0  0  0  0  0  0  0  0  0  0  0  0
    0.1047   63.6585   73.6065 H   0  0  0  0  0  0  0  0  0  0  0  0
    1.2870   65.0708   71.9909 H   0  0  0  0  0  0  0  0  0  0  0  0
    4.1825   57.1968   71.0438 H   0  0  0  0  0  0  0  0  0  0  0  0
    2.5459   57.4674   70.3545 H   0  0  0  0  0  0  0  0  0  0  0  0
    3.7518   58.7987   70.3545 H   0  0  0  0  0  0  0  0  0  0  0  0
    0.2368   59.0151   75.4433 H   0  0  0  0  0  0  0  0  0  0  0  0
    0.3118   57.2306   75.2522 H   0  0  0  0  0  0  0  0  0  0  0  0
    1.8252   58.1983   75.2522 H   0  0  0  0  0  0  0  0  0  0  0  0
    2.2416   66.1565   70.5559 H   0  0  0  0  0  0  0  0  0  0  0  0
    2.3293   68.2396   69.1943 H   0  0  0  0  0  0  0  0  0  0  0  0
   -1.5569   67.3189   67.5427 H   0  0  0  0  0  0  0  0  0  0  0  0
   -1.6290   65.2385   68.9002 H   0  0  0  0  0  0  0  0  0  0  0  0
    0.7691   69.9736   68.1040 H   0  0  0  0  0  0  0  0  0  0  0  0
   -1.5899   69.9078   67.8673 H   0  0  0  0  0  0  0  0  0  0  0  0
   -0.8641   70.6014   66.3777 H   0  0  0  0  0  0  0  0  0  0  0  0
   -1.4713   68.9108   66.3777 H   0  0  0  0  0  0  0  0  0  0  0  0
    1.1538   69.9056   65.6633 H   0  0  0  0  0  0  0  0  0  0  0  0
    0.1155   67.4471   65.6071 H   0  0  0  0  0  0  0  0  0  0  0  0
    1.0041   68.2916   64.2778 H   0  0  0  0  0  0  0  0  0  0  0  0
    2.2355   66.4826   66.3991 H   0  0  0  0  0  0  0  0  0  0  0  0
    1.9193   66.0651   64.6618 H   0  0  0  0  0  0  0  0  0  0  0  0
    4.3155   66.8633   65.4664 H   0  0  0  0  0  0  0  0  0  0  0  0
    3.5999   67.3896   63.8761 H   0  0  0  0  0  0  0  0  0  0  0  0
    4.7382   69.1065   65.6059 H   0  0  0  0  0  0  0  0  0  0  0  0
    3.3484   69.5329   64.5218 H   0  0  0  0  0  0  0  0  0  0  0  0
    3.0997   68.6087   67.4179 H   0  0  0  0  0  0  0  0  0  0  0  0
    3.0095   70.3131   66.8591 H   0  0  0  0  0  0  0  0  0  0  0  0
  3  2  2  0
  4  3  1  0
  5  4  2  0
  6  5  1  0
  7  6  2  0
  7  2  1  0
  8  5  1  0
  9  8  1  0
  9  1  1  0
 10  9  1  0
 10  4  1  0
 11 10  2  0
 13 12  1  0
 13  2  1  0
 14  7  1  0
 15 14  1  0
 16  1  1  0
 17 16  2  0
 18 17  1  0
 19 18  2  0
 20 19  1  0
 21 20  2  0
 21 16  1  0
 22 19  1  0
 23 22  1  0
 24 22  1  0
 25 24  1  0
 26 25  1  0
 27 26  1  0
 28 27  1  0
 29 28  1  0
 29 24  1  0
  3 30  1  0
  6 31  1  0
  8 32  1  0
  8 33  1  0
  9 34  1  1
 12 35  1  0
 12 36  1  0
 12 37  1  0
 15 38  1  0
 15 39  1  0
 15 40  1  0
 17 41  1  0
 18 42  1  0
 20 43  1  0
 21 44  1  0
 22 45  1  1
 23 46  1  0
 23 47  1  0
 23 48  1  0
 24 49  1  0
 25 50  1  0
 25 51  1  0
 26 52  1  0
 26 53  1  0
 27 54  1  0
 27 55  1  0
 28 56  1  0
 28 57  1  0
 29 58  1  0
 29 59  1  0
M  CHG  1  24   1
M  END
>  <score>  (3) 
-9.09

$$$$
=
     RDKit          3D

 59 62  0  0  0  0  0  0  0  0999 V2000
    1.0060   68.3830   68.8010 O   0  0  0  0  0  0  0  0  0  0  0  0
    3.5300   66.5580   64.2020 C   0  0  0  0  0  0  0  0  0  0  0  0
    2.3260   66.3630   64.8850 C   0  0  0  0  0  0  0  0  0  0  0  0
    1.9000   67.3680   65.7340 C   0  0  0  0  0  0  0  0  0  0  0  0
    2.6050   68.5450   65.9320 C   0  0  0  0  0  0  0  0  0  0  0  0
    3.7980   68.7570   65.2570 C   0  0  0  0  0  0  0  0  0  0  0  0
    4.2710   67.7600   64.3900 C   0  0  0  0  0  0  0  0  0  0  0  0
    1.8990   69.4840   66.8600 C   0  0  0  0  0  0  0  0  0  0  0  0
    0.7200   68.6560   67.4340 C   0  0  1  0  0  0  0  0  0  0  0  0
    0.7000   67.4020   66.5580 C   0  0  0  0  0  0  0  0  0  0  0  0
   -0.1570   66.5330   66.5340 O   0  0  0  0  0  0  0  0  0  0  0  0
    4.4450   64.3760   63.8470 C   0  0  0  0  0  0  0  0  0  0  0  0
    4.0800   65.6490   63.3310 O   0  0  0  0  0  0  0  0  0  0  0  0
    5.4380   67.8550   63.6730 O   0  0  0  0  0  0  0  0  0  0  0  0
    5.5930   68.9610   62.7960 C   0  0  0  0  0  0  0  0  0  0  0  0
    0.8370   67.1170   69.2790 C   0  0  0  0  0  0  0  0  0  0  0  0
   -0.3570   66.4060   69.3430 C   0  0  0  0  0  0  0  0  0  0  0  0
   -0.3770   65.0940   69.8380 C   0  0  0  0  0  0  0  0  0  0  0  0
    0.7970   64.4700   70.2810 C   0  0  0  0  0  0  0  0  0  0  0  0
    1.9940   65.2040   70.2300 C   0  0  0  0  0  0  0  0  0  0  0  0
    2.0080   66.5100   69.7340 C   0  0  0  0  0  0  0  0  0  0  0  0
    0.8190   63.0560   70.8370 C   0  0  2  0  0  0  0  0  0  0  0  0
   -0.1040   62.8090   72.0350 C   0  0  0  0  0  0  0  0  0  0  0  0
    2.2510   62.5930   71.1280 N   0  0  0  0  0  4  0  0  0  0  0  0
    2.8300   61.6680   70.0730 C   0  0  0  0  0  0  0  0  0  0  0  0
    3.0370   60.2700   70.6280 C   0  0  0  0  0  0  0  0  0  0  0  0
    3.9870   60.2660   71.8240 C   0  0  0  0  0  0  0  0  0  0  0  0
    3.8850   61.5360   72.6650 C   0  0  0  0  0  0  0  0  0  0  0  0
    2.5070   62.1700   72.5630 C   0  0  0  0  0  0  0  0  0  0  0  0
    1.7383   65.4428   64.7518 H   0  0  0  0  0  0  0  0  0  0  0  0
    4.3633   69.6899   65.3987 H   0  0  0  0  0  0  0  0  0  0  0  0
    2.5717   69.8119   67.6662 H   0  0  0  0  0  0  0  0  0  0  0  0
    1.5576   70.3964   66.3492 H   0  0  0  0  0  0  0  0  0  0  0  0
   -0.2622   69.1508   67.4155 H   0  0  0  0  0  0  0  0  0  0  0  0
    4.4354   64.4095   64.9464 H   0  0  0  0  0  0  0  0  0  0  0  0
    3.7277   63.6191   63.4970 H   0  0  0  0  0  0  0  0  0  0  0  0
    5.4544   64.1142   63.4970 H   0  0  0  0  0  0  0  0  0  0  0  0
    5.7219   69.8809   63.3852 H   0  0  0  0  0  0  0  0  0  0  0  0
    6.4780   68.8048   62.1617 H   0  0  0  0  0  0  0  0  0  0  0  0
    4.6991   69.0541   62.1617 H   0  0  0  0  0  0  0  0  0  0  0  0
   -1.2916   66.8760   69.0031 H   0  0  0  0  0  0  0  0  0  0  0  0
   -1.3298   64.5458   69.8792 H   0  0  0  0  0  0  0  0  0  0  0  0
    2.9293   64.7459   70.5841 H   0  0  0  0  0  0  0  0  0  0  0  0
    2.9556   67.0676   69.7017 H   0  0  0  0  0  0  0  0  0  0  0  0
    0.3975   62.4354   70.0325 H   0  0  0  0  0  0  0  0  0  0  0  0
    0.4584   62.9595   72.9683 H   0  0  0  0  0  0  0  0  0  0  0  0
   -0.9487   63.5127   71.9983 H   0  0  0  0  0  0  0  0  0  0  0  0
   -0.4843   61.7775   71.9983 H   0  0  0  0  0  0  0  0  0  0  0  0
    2.8135   63.4513   71.0393 H   0  0  0  0  0  0  0  0  0  0  0  0
    2.1373   61.6173   69.2200 H   0  0  0  0  0  0  0  0  0  0  0  0
    3.8049   62.0663   69.7552 H   0  0  0  0  0  0  0  0  0  0  0  0
    2.0644   59.8659   70.9453 H   0  0  0  0  0  0  0  0  0  0  0  0
    3.4844   59.6518   69.8357 H   0  0  0  0  0  0  0  0  0  0  0  0
    3.7462   59.4023   72.4612 H   0  0  0  0  0  0  0  0  0  0  0  0
    5.0131   60.2102   71.4316 H   0  0  0  0  0  0  0  0  0  0  0  0
    4.0841   61.2836   73.7170 H   0  0  0  0  0  0  0  0  0  0  0  0
    4.6231   62.2581   72.2858 H   0  0  0  0  0  0  0  0  0  0  0  0
    1.7438   61.4407   72.8722 H   0  0  0  0  0  0  0  0  0  0  0  0
    2.4587   63.0511   73.2197 H   0  0  0  0  0  0  0  0  0  0  0  0
  3  2  2  0
  4  3  1  0
  5  4  2  0
  6  5  1  0
  7  6  2  0
  7  2  1  0
  8  5  1  0
  9  8  1  0
  9  1  1  0
 10  9  1  0
 10  4  1  0
 11 10  2  0
 13 12  1  0
 13  2  1  0
 14  7  1  0
 15 14  1  0
 16  1  1  0
 17 16  2  0
 18 17  1  0
 19 18  2  0
 20 19  1  0
 21 20  2  0
 21 16  1  0
 22 19  1  0
 23 22  1  0
 24 22  1  0
 25 24  1  0
 26 25  1  0
 27 26  1  0
 28 27  1  0
 29 28  1  0
 29 24  1  0
  3 30  1  0
  6 31  1  0
  8 32  1  0
  8 33  1  0
  9 34  1  1
 12 35  1  0
 12 36  1  0
 12 37  1  0
 15 38  1  0
 15 39  1  0
 15 40  1  0
 17 41  1  0
 18 42  1  0
 20 43  1  0
 21 44  1  0
 22 45  1  6
 23 46  1  0
 23 47  1  0
 23 48  1  0
 24 49  1  0
 25 50  1  0
 25 51  1  0
 26 52  1  0
 26 53  1  0
 27 54  1  0
 27 55  1  0
 28 56  1  0
 28 57  1  0
 29 58  1  0
 29 59  1  0
M  CHG  1  24   1
M  END
>  <score>  (4) 
-8.893

$$$$
=
     RDKit          3D

 59 62  0  0  0  0  0  0  0  0999 V2000
    4.5880   61.1670   70.0330 O   0  0  0  0  0  0  0  0  0  0  0  0
    0.9600   59.3540   73.8280 C   0  0  0  0  0  0  0  0  0  0  0  0
    1.7370   58.8340   72.7890 C   0  0  0  0  0  0  0  0  0  0  0  0
    2.8560   59.5510   72.4050 C   0  0  0  0  0  0  0  0  0  0  0  0
    3.2350   60.7430   73.0010 C   0  0  0  0  0  0  0  0  0  0  0  0
    2.4780   61.2690   74.0370 C   0  0  0  0  0  0  0  0  0  0  0  0
    1.3300   60.5780   74.4540 C   0  0  0  0  0  0  0  0  0  0  0  0
    4.5100   61.2860   72.4330 C   0  0  0  0  0  0  0  0  0  0  0  0
    4.8050   60.3870   71.2030 C   0  0  1  0  0  0  0  0  0  0  0  0
    3.8120   59.2330   71.3540 C   0  0  0  0  0  0  0  0  0  0  0  0
    3.7800   58.1990   70.7060 O   0  0  0  0  0  0  0  0  0  0  0  0
   -0.4100   57.3970   73.9710 C   0  0  0  0  0  0  0  0  0  0  0  0
   -0.1790   58.7570   74.3120 O   0  0  0  0  0  0  0  0  0  0  0  0
    0.5020   61.0010   75.4650 O   0  0  0  0  0  0  0  0  0  0  0  0
    1.0610   61.8100   76.4890 C   0  0  0  0  0  0  0  0  0  0  0  0
    3.6740   62.1790   70.0660 C   0  0  0  0  0  0  0  0  0  0  0  0
    2.3070   62.0710   69.8320 C   0  0  0  0  0  0  0  0  0  0  0  0
    1.4780   63.1980   69.9240 C   0  0  0  0  0  0  0  0  0  0  0  0
    2.0030   64.4570   70.2500 C   0  0  0  0  0  0  0  0  0  0  0  0
    3.3880   64.5590   70.4640 C   0  0  0  0  0  0  0  0  0  0  0  0
    4.2080   63.4310   70.3720 C   0  0  0  0  0  0  0  0  0  0  0  0
    1.1460   65.7070   70.3470 C   0  0  2  0  0  0  0  0  0  0  0  0
    0.0000   65.6380   71.3630 C   0  0  0  0  0  0  0  0  0  0  0  0
    0.6460   66.1500   68.9680 N   0  0  0  0  0  4  0  0  0  0  0  0
    1.5540   67.1450   68.2700 C   0  0  0  0  0  0  0  0  0  0  0  0
    0.8840   68.5030   68.1470 C   0  0  0  0  0  0  0  0  0  0  0  0
   -0.4200   68.4250   67.3550 C   0  0  0  0  0  0  0  0  0  0  0  0
   -1.1530   67.1000   67.5500 C   0  0  0  0  0  0  0  0  0  0  0  0
   -0.8350   66.4740   68.8980 C   0  0  0  0  0  0  0  0  0  0  0  0
    1.4684   57.8888   72.2945 H   0  0  0  0  0  0  0  0  0  0  0  0
    2.7721   62.2109   74.5231 H   0  0  0  0  0  0  0  0  0  0  0  0
    4.3827   62.3346   72.1260 H   0  0  0  0  0  0  0  0  0  0  0  0
    5.3311   61.2740   73.1649 H   0  0  0  0  0  0  0  0  0  0  0  0
    5.8323   60.0004   71.1315 H   0  0  0  0  0  0  0  0  0  0  0  0
   -0.5113   56.8007   74.8898 H   0  0  0  0  0  0  0  0  0  0  0  0
   -1.3342   57.3191   73.3796 H   0  0  0  0  0  0  0  0  0  0  0  0
    0.4367   57.0184   73.3796 H   0  0  0  0  0  0  0  0  0  0  0  0
    0.7801   61.4035   77.4718 H   0  0  0  0  0  0  0  0  0  0  0  0
    2.1569   61.8161   76.3943 H   0  0  0  0  0  0  0  0  0  0  0  0
    0.6791   62.8372   76.3943 H   0  0  0  0  0  0  0  0  0  0  0  0
    1.8731   61.0940   69.5728 H   0  0  0  0  0  0  0  0  0  0  0  0
    0.3990   63.0931   69.7376 H   0  0  0  0  0  0  0  0  0  0  0  0
    3.8312   65.5362   70.7063 H   0  0  0  0  0  0  0  0  0  0  0  0
    5.2899   63.5318   70.5433 H   0  0  0  0  0  0  0  0  0  0  0  0
    1.8229   66.4762   70.7471 H   0  0  0  0  0  0  0  0  0  0  0  0
    0.4120   65.6628   72.3826 H   0  0  0  0  0  0  0  0  0  0  0  0
   -0.6711   66.4974   71.2177 H   0  0  0  0  0  0  0  0  0  0  0  0
   -0.5631   64.7043   71.2177 H   0  0  0  0  0  0  0  0  0  0  0  0
    0.7208   65.3000   68.3911 H   0  0  0  0  0  0  0  0  0  0  0  0
    2.4820   67.2534   68.8506 H   0  0  0  0  0  0  0  0  0  0  0  0
    1.7723   66.7699   67.2592 H   0  0  0  0  0  0  0  0  0  0  0  0
    0.6654   68.8844   69.1553 H   0  0  0  0  0  0  0  0  0  0  0  0
    1.5699   69.1742   67.6093 H   0  0  0  0  0  0  0  0  0  0  0  0
   -1.0792   69.2426   67.6821 H   0  0  0  0  0  0  0  0  0  0  0  0
   -0.1648   68.5081   66.2883 H   0  0  0  0  0  0  0  0  0  0  0  0
   -2.2364   67.2795   67.4871 H   0  0  0  0  0  0  0  0  0  0  0  0
   -0.8217   66.4062   66.7633 H   0  0  0  0  0  0  0  0  0  0  0  0
   -1.0943   67.1801   69.7006 H   0  0  0  0  0  0  0  0  0  0  0  0
   -1.4189   65.5498   69.0202 H   0  0  0  0  0  0  0  0  0  0  0  0
  3  2  2  0
  4  3  1  0
  5  4  2  0
  6  5  1  0
  7  6  2  0
  7  2  1  0
  8  5  1  0
  9  8  1  0
  9  1  1  0
 10  9  1  0
 10  4  1  0
 11 10  2  0
 13 12  1  0
 13  2  1  0
 14  7  1  0
 15 14  1  0
 16  1  1  0
 17 16  2  0
 18 17  1  0
 19 18  2  0
 20 19  1  0
 21 20  2  0
 21 16  1  0
 22 19  1  0
 23 22  1  0
 24 22  1  0
 25 24  1  0
 26 25  1  0
 27 26  1  0
 28 27  1  0
 29 28  1  0
 29 24  1  0
  3 30  1  0
  6 31  1  0
  8 32  1  0
  8 33  1  0
  9 34  1  1
 12 35  1  0
 12 36  1  0
 12 37  1  0
 15 38  1  0
 15 39  1  0
 15 40  1  0
 17 41  1  0
 18 42  1  0
 20 43  1  0
 21 44  1  0
 22 45  1  1
 23 46  1  0
 23 47  1  0
 23 48  1  0
 24 49  1  0
 25 50  1  0
 25 51  1  0
 26 52  1  0
 26 53  1  0
 27 54  1  0
 27 55  1  0
 28 56  1  0
 28 57  1  0
 29 58  1  0
 29 59  1  0
M  CHG  1  24   1
M  END
>  <score>  (5) 
-8.551

$$$$
=
     RDKit          3D

 59 62  0  0  0  0  0  0  0  0999 V2000
   -0.8130   63.3540   74.6420 O   0  0  0  0  0  0  0  0  0  0  0  0
    2.4600   62.3490   70.2680 C   0  0  0  0  0  0  0  0  0  0  0  0
    1.5300   63.3060   70.6820 C   0  0  0  0  0  0  0  0  0  0  0  0
    1.3010   63.4320   72.0410 C   0  0  0  0  0  0  0  0  0  0  0  0
    1.9480   62.6620   72.9940 C   0  0  0  0  0  0  0  0  0  0  0  0
    2.8790   61.7130   72.6000 C   0  0  0  0  0  0  0  0  0  0  0  0
    3.1370   61.5470   71.2300 C   0  0  0  0  0  0  0  0  0  0  0  0
    1.5560   63.0340   74.3910 C   0  0  0  0  0  0  0  0  0  0  0  0
    0.3710   64.0190   74.2160 C   0  0  1  0  0  0  0  0  0  0  0  0
    0.3830   64.3360   72.7200 C   0  0  0  0  0  0  0  0  0  0  0  0
   -0.2700   65.1900   72.1420 O   0  0  0  0  0  0  0  0  0  0  0  0
    3.7120   62.9900   68.3320 C   0  0  0  0  0  0  0  0  0  0  0  0
    2.7870   62.1090   68.9560 O   0  0  0  0  0  0  0  0  0  0  0  0
    4.0330   60.6390   70.7210 O   0  0  0  0  0  0  0  0  0  0  0  0
    5.4040   60.7960   71.0550 C   0  0  0  0  0  0  0  0  0  0  0  0
   -0.8020   61.9980   74.7840 C   0  0  0  0  0  0  0  0  0  0  0  0
   -0.3830   61.2840   75.9020 C   0  0  0  0  0  0  0  0  0  0  0  0
   -0.4520   59.8840   75.9180 C   0  0  0  0  0  0  0  0  0  0  0  0
   -0.9380   59.1710   74.8120 C   0  0  0  0  0  0  0  0  0  0  0  0
   -1.3380   59.9010   73.6810 C   0  0  0  0  0  0  0  0  0  0  0  0
   -1.2700   61.2960   73.6720 C   0  0  0  0  0  0  0  0  0  0  0  0
   -1.0160   57.6540   74.7800 C   0  0  2  0  0  0  0  0  0  0  0  0
   -2.2120   57.0440   75.5190 C   0  0  0  0  0  0  0  0  0  0  0  0
    0.3030   57.0170   75.2270 N   0  0  0  0  0  4  0  0  0  0  0  0
    1.4020   57.0670   74.1810 C   0  0  0  0  0  0  0  0  0  0  0  0
    1.7390   55.6750   73.6760 C   0  0  0  0  0  0  0  0  0  0  0  0
    2.2090   54.7580   74.8030 C   0  0  0  0  0  0  0  0  0  0  0  0
    1.5360   55.0670   76.1380 C   0  0  0  0  0  0  0  0  0  0  0  0
    0.1610   55.6870   75.9440 C   0  0  0  0  0  0  0  0  0  0  0  0
    0.9989   63.9367   69.9539 H   0  0  0  0  0  0  0  0  0  0  0  0
    3.4058   61.1014   73.3472 H   0  0  0  0  0  0  0  0  0  0  0  0
    1.2411   62.1442   74.9559 H   0  0  0  0  0  0  0  0  0  0  0  0
    2.3896   63.4801   74.9532 H   0  0  0  0  0  0  0  0  0  0  0  0
    0.4332   64.9472   74.8030 H   0  0  0  0  0  0  0  0  0  0  0  0
    4.2802   63.5312   69.1029 H   0  0  0  0  0  0  0  0  0  0  0  0
    4.4052   62.4099   67.7051 H   0  0  0  0  0  0  0  0  0  0  0  0
    3.1663   63.7106   67.7051 H   0  0  0  0  0  0  0  0  0  0  0  0
    5.5157   60.8088   72.1492 H   0  0  0  0  0  0  0  0  0  0  0  0
    5.9814   59.9581   70.6373 H   0  0  0  0  0  0  0  0  0  0  0  0
    5.7771   61.7427   70.6373 H   0  0  0  0  0  0  0  0  0  0  0  0
    0.0052   61.8218   76.7796 H   0  0  0  0  0  0  0  0  0  0  0  0
   -0.1198   59.3358   76.8120 H   0  0  0  0  0  0  0  0  0  0  0  0
   -1.7088   59.3685   72.7928 H   0  0  0  0  0  0  0  0  0  0  0  0
   -1.5896   61.8490   72.7764 H   0  0  0  0  0  0  0  0  0  0  0  0
   -1.1919   57.4086   73.7222 H   0  0  0  0  0  0  0  0  0  0  0  0
   -2.0527   57.1253   76.6044 H   0  0  0  0  0  0  0  0  0  0  0  0
   -3.1290   57.5845   75.2415 H   0  0  0  0  0  0  0  0  0  0  0  0
   -2.3128   55.9844   75.2415 H   0  0  0  0  0  0  0  0  0  0  0  0
    0.6411   57.6431   75.9717 H   0  0  0  0  0  0  0  0  0  0  0  0
    1.0653   57.6844   73.3352 H   0  0  0  0  0  0  0  0  0  0  0  0
    2.3028   57.4998   74.6407 H   0  0  0  0  0  0  0  0  0  0  0  0
    0.8420   55.2380   73.2128 H   0  0  0  0  0  0  0  0  0  0  0  0
    2.5578   55.7660   72.9471 H   0  0  0  0  0  0  0  0  0  0  0  0
    1.9815   53.7177   74.5274 H   0  0  0  0  0  0  0  0  0  0  0  0
    3.2894   54.9195   74.9320 H   0  0  0  0  0  0  0  0  0  0  0  0
    1.4285   54.1323   76.7079 H   0  0  0  0  0  0  0  0  0  0  0  0
    2.1645   55.7889   76.6801 H   0  0  0  0  0  0  0  0  0  0  0  0
   -0.4646   55.0110   75.3426 H   0  0  0  0  0  0  0  0  0  0  0  0
   -0.3108   55.8474   76.9246 H   0  0  0  0  0  0  0  0  0  0  0  0
  3  2  2  0
  4  3  1  0
  5  4  2  0
  6  5  1  0
  7  6  2  0
  7  2  1  0
  8  5  1  0
  9  8  1  0
  9  1  1  0
 10  9  1  0
 10  4  1  0
 11 10  2  0
 13 12  1  0
 13  2  1  0
 14  7  1  0
 15 14  1  0
 16  1  1  0
 17 16  2  0
 18 17  1  0
 19 18  2  0
 20 19  1  0
 21 20  2  0
 21 16  1  0
 22 19  1  0
 23 22  1  0
 24 22  1  0
 25 24  1  0
 26 25  1  0
 27 26  1  0
 28 27  1  0
 29 28  1  0
 29 24  1  0
  3 30  1  0
  6 31  1  0
  8 32  1  0
  8 33  1  0
  9 34  1  1
 12 35  1  0
 12 36  1  0
 12 37  1  0
 15 38  1  0
 15 39  1  0
 15 40  1  0
 17 41  1  0
 18 42  1  0
 20 43  1  0
 21 44  1  0
 22 45  1  6
 23 46  1  0
 23 47  1  0
 23 48  1  0
 24 49  1  0
 25 50  1  0
 25 51  1  0
 26 52  1  0
 26 53  1  0
 27 54  1  0
 27 55  1  0
 28 56  1  0
 28 57  1  0
 29 58  1  0
 29 59  1  0
M  CHG  1  24   1
M  END
>  <score>  (6) 
-7.921

$$$$
=
     RDKit          3D

 59 62  0  0  0  0  0  0  0  0999 V2000
   -1.6470   62.3270   74.4150 O   0  0  0  0  0  0  0  0  0  0  0  0
    1.7260   58.0250   75.4030 C   0  0  0  0  0  0  0  0  0  0  0  0
    1.1370   59.0780   76.1080 C   0  0  0  0  0  0  0  0  0  0  0  0
   -0.0100   59.6430   75.5780 C   0  0  0  0  0  0  0  0  0  0  0  0
   -0.5920   59.2120   74.3970 C   0  0  0  0  0  0  0  0  0  0  0  0
   -0.0230   58.1640   73.6890 C   0  0  0  0  0  0  0  0  0  0  0  0
    1.1450   57.5670   74.1870 C   0  0  0  0  0  0  0  0  0  0  0  0
   -1.8510   59.9560   74.0750 C   0  0  0  0  0  0  0  0  0  0  0  0
   -1.8980   61.1110   75.1100 C   0  0  1  0  0  0  0  0  0  0  0  0
   -0.7990   60.7460   76.1090 C   0  0  0  0  0  0  0  0  0  0  0  0
   -0.5730   61.2790   77.1830 O   0  0  0  0  0  0  0  0  0  0  0  0
    4.0930   58.0870   75.7470 C   0  0  0  0  0  0  0  0  0  0  0  0
    2.8660   57.3720   75.8030 O   0  0  0  0  0  0  0  0  0  0  0  0
    1.8000   56.5270   73.5730 O   0  0  0  0  0  0  0  0  0  0  0  0
    1.4110   55.2030   73.9100 C   0  0  0  0  0  0  0  0  0  0  0  0
   -0.4500   62.5000   73.7840 C   0  0  0  0  0  0  0  0  0  0  0  0
    0.7300   62.9660   74.3560 C   0  0  0  0  0  0  0  0  0  0  0  0
    1.8990   63.0690   73.5880 C   0  0  0  0  0  0  0  0  0  0  0  0
    1.9080   62.7110   72.2330 C   0  0  0  0  0  0  0  0  0  0  0  0
    0.7070   62.2610   71.6610 C   0  0  0  0  0  0  0  0  0  0  0  0
   -0.4540   62.1580   72.4310 C   0  0  0  0  0  0  0  0  0  0  0  0
    3.1470   62.8210   71.3600 C   0  0  2  0  0  0  0  0  0  0  0  0
    2.9240   63.4510   69.9810 C   0  0  0  0  0  0  0  0  0  0  0  0
    3.8740   61.4760   71.2520 N   0  0  0  0  0  4  0  0  0  0  0  0
    4.0360   60.9720   69.8300 C   0  0  0  0  0  0  0  0  0  0  0  0
    3.2070   59.7200   69.5970 C   0  0  0  0  0  0  0  0  0  0  0  0
    3.6060   58.5880   70.5410 C   0  0  0  0  0  0  0  0  0  0  0  0
    4.0680   59.0920   71.9060 C   0  0  0  0  0  0  0  0  0  0  0  0
    3.4340   60.4280   72.2580 C   0  0  0  0  0  0  0  0  0  0  0  0
    1.5695   59.4448   77.0506 H   0  0  0  0  0  0  0  0  0  0  0  0
   -0.4792   57.8072   72.7538 H   0  0  0  0  0  0  0  0  0  0  0  0
   -1.8157   60.3540   73.0501 H   0  0  0  0  0  0  0  0  0  0  0  0
   -2.7413   59.3121   74.1274 H   0  0  0  0  0  0  0  0  0  0  0  0
   -2.8576   61.2442   75.6309 H   0  0  0  0  0  0  0  0  0  0  0  0
    4.4449   58.2920   76.7688 H   0  0  0  0  0  0  0  0  0  0  0  0
    4.8441   57.4852   75.2144 H   0  0  0  0  0  0  0  0  0  0  0  0
    3.9397   59.0372   75.2144 H   0  0  0  0  0  0  0  0  0  0  0  0
    1.3799   55.0973   75.0045 H   0  0  0  0  0  0  0  0  0  0  0  0
    0.4142   54.9964   73.4932 H   0  0  0  0  0  0  0  0  0  0  0  0
    2.1376   54.4900   73.4932 H   0  0  0  0  0  0  0  0  0  0  0  0
    0.7459   63.2554   75.4171 H   0  0  0  0  0  0  0  0  0  0  0  0
    2.8237   63.4367   74.0567 H   0  0  0  0  0  0  0  0  0  0  0  0
    0.6802   61.9869   70.5960 H   0  0  0  0  0  0  0  0  0  0  0  0
   -1.3844   61.8023   71.9643 H   0  0  0  0  0  0  0  0  0  0  0  0
    3.7942   63.5378   71.8866 H   0  0  0  0  0  0  0  0  0  0  0  0
    2.5592   64.4815   70.1033 H   0  0  0  0  0  0  0  0  0  0  0  0
    3.8730   63.4615   69.4249 H   0  0  0  0  0  0  0  0  0  0  0  0
    2.1797   62.8622   69.4249 H   0  0  0  0  0  0  0  0  0  0  0  0
    4.8366   61.6884   71.5506 H   0  0  0  0  0  0  0  0  0  0  0  0
    3.7079   61.7556   69.1313 H   0  0  0  0  0  0  0  0  0  0  0  0
    5.0953   60.7261   69.6644 H   0  0  0  0  0  0  0  0  0  0  0  0
    2.1460   59.9609   69.7593 H   0  0  0  0  0  0  0  0  0  0  0  0
    3.3840   59.3815   68.5654 H   0  0  0  0  0  0  0  0  0  0  0  0
    2.7379   57.9281   70.6853 H   0  0  0  0  0  0  0  0  0  0  0  0
    4.4512   58.0551   70.0809 H   0  0  0  0  0  0  0  0  0  0  0  0
    3.7894   58.3529   72.6715 H   0  0  0  0  0  0  0  0  0  0  0  0
    5.1587   59.2301   71.8686 H   0  0  0  0  0  0  0  0  0  0  0  0
    2.3385   60.3323   72.2327 H   0  0  0  0  0  0  0  0  0  0  0  0
    3.7517   60.7309   73.2666 H   0  0  0  0  0  0  0  0  0  0  0  0
  3  2  2  0
  4  3  1  0
  5  4  2  0
  6  5  1  0
  7  6  2  0
  7  2  1  0
  8  5  1  0
  9  8  1  0
  9  1  1  0
 10  9  1  0
 10  4  1  0
 11 10  2  0
 13 12  1  0
 13  2  1  0
 14  7  1  0
 15 14  1  0
 16  1  1  0
 17 16  2  0
 18 17  1  0
 19 18  2  0
 20 19  1  0
 21 20  2  0
 21 16  1  0
 22 19  1  0
 23 22  1  0
 24 22  1  0
 25 24  1  0
 26 25  1  0
 27 26  1  0
 28 27  1  0
 29 28  1  0
 29 24  1  0
  3 30  1  0
  6 31  1  0
  8 32  1  0
  8 33  1  0
  9 34  1  1
 12 35  1  0
 12 36  1  0
 12 37  1  0
 15 38  1  0
 15 39  1  0
 15 40  1  0
 17 41  1  0
 18 42  1  0
 20 43  1  0
 21 44  1  0
 22 45  1  1
 23 46  1  0
 23 47  1  0
 23 48  1  0
 24 49  1  0
 25 50  1  0
 25 51  1  0
 26 52  1  0
 26 53  1  0
 27 54  1  0
 27 55  1  0
 28 56  1  0
 28 57  1  0
 29 58  1  0
 29 59  1  0
M  CHG  1  24   1
M  END
>  <score>  (7) 
-7.9

$$$$
=
     RDKit          3D

 59 62  0  0  0  0  0  0  0  0999 V2000
    2.0120   56.7390   75.2240 O   0  0  0  0  0  0  0  0  0  0  0  0
   -1.9490   60.5620   74.4890 C   0  0  0  0  0  0  0  0  0  0  0  0
   -1.8350   59.1700   74.5510 C   0  0  0  0  0  0  0  0  0  0  0  0
   -0.7440   58.6470   75.2210 C   0  0  0  0  0  0  0  0  0  0  0  0
    0.2230   59.4320   75.8280 C   0  0  0  0  0  0  0  0  0  0  0  0
    0.1210   60.8140   75.7800 C   0  0  0  0  0  0  0  0  0  0  0  0
   -0.9670   61.3880   75.1040 C   0  0  0  0  0  0  0  0  0  0  0  0
    1.2660   58.6160   76.5270 C   0  0  0  0  0  0  0  0  0  0  0  0
    0.9710   57.1540   76.1000 C   0  0  1  0  0  0  0  0  0  0  0  0
   -0.3940   57.2470   75.4160 C   0  0  0  0  0  0  0  0  0  0  0  0
   -1.1040   56.3200   75.0590 O   0  0  0  0  0  0  0  0  0  0  0  0
   -4.2800   61.0970   74.4000 C   0  0  0  0  0  0  0  0  0  0  0  0
   -2.9730   61.2240   73.8550 O   0  0  0  0  0  0  0  0  0  0  0  0
   -1.1720   62.7410   74.9870 O   0  0  0  0  0  0  0  0  0  0  0  0
   -0.0330   63.5790   74.8580 C   0  0  0  0  0  0  0  0  0  0  0  0
    2.5630   57.6450   74.3650 C   0  0  0  0  0  0  0  0  0  0  0  0
    3.5810   58.5490   74.6530 C   0  0  0  0  0  0  0  0  0  0  0  0
    4.0680   59.4090   73.6590 C   0  0  0  0  0  0  0  0  0  0  0  0
    3.5440   59.3830   72.3590 C   0  0  0  0  0  0  0  0  0  0  0  0
    2.5030   58.4810   72.0850 C   0  0  0  0  0  0  0  0  0  0  0  0
    2.0220   57.6250   73.0790 C   0  0  0  0  0  0  0  0  0  0  0  0
    4.0320   60.3070   71.2550 C   0  0  2  0  0  0  0  0  0  0  0  0
    5.4120   60.9310   71.4860 C   0  0  0  0  0  0  0  0  0  0  0  0
    2.9840   61.3720   70.9140 N   0  0  0  0  0  4  0  0  0  0  0  0
    3.0960   61.9240   69.5050 C   0  0  0  0  0  0  0  0  0  0  0  0
    3.5180   63.3830   69.5230 C   0  0  0  0  0  0  0  0  0  0  0  0
    2.5240   64.2540   70.2870 C   0  0  0  0  0  0  0  0  0  0  0  0
    1.8650   63.5190   71.4520 C   0  0  0  0  0  0  0  0  0  0  0  0
    2.7550   62.4130   71.9950 C   0  0  0  0  0  0  0  0  0  0  0  0
   -2.5853   58.5149   74.0841 H   0  0  0  0  0  0  0  0  0  0  0  0
    0.8787   61.4488   76.2627 H   0  0  0  0  0  0  0  0  0  0  0  0
    2.2741   58.9180   76.2070 H   0  0  0  0  0  0  0  0  0  0  0  0
    1.2345   58.7459   77.6188 H   0  0  0  0  0  0  0  0  0  0  0  0
    0.9403   56.4170   76.9161 H   0  0  0  0  0  0  0  0  0  0  0  0
   -4.2214   61.1027   75.4984 H   0  0  0  0  0  0  0  0  0  0  0  0
   -4.9018   61.9390   74.0616 H   0  0  0  0  0  0  0  0  0  0  0  0
   -4.7281   60.1511   74.0616 H   0  0  0  0  0  0  0  0  0  0  0  0
    0.3370   63.8512   75.8575 H   0  0  0  0  0  0  0  0  0  0  0  0
    0.7554   63.0440   74.3083 H   0  0  0  0  0  0  0  0  0  0  0  0
   -0.3091   64.4909   74.3083 H   0  0  0  0  0  0  0  0  0  0  0  0
    4.0061   58.5889   75.6668 H   0  0  0  0  0  0  0  0  0  0  0  0
    4.8746   60.1159   73.9030 H   0  0  0  0  0  0  0  0  0  0  0  0
    2.0620   58.4481   71.0778 H   0  0  0  0  0  0  0  0  0  0  0  0
    1.2058   56.9259   72.8446 H   0  0  0  0  0  0  0  0  0  0  0  0
    4.1705   59.6493   70.3842 H   0  0  0  0  0  0  0  0  0  0  0  0
    5.5998   61.0159   72.5665 H   0  0  0  0  0  0  0  0  0  0  0  0
    6.1836   60.2942   71.0287 H   0  0  0  0  0  0  0  0  0  0  0  0
    5.4435   61.9309   71.0287 H   0  0  0  0  0  0  0  0  0  0  0  0
    2.0947   60.8523   70.9052 H   0  0  0  0  0  0  0  0  0  0  0  0
    3.8440   61.3402   68.9485 H   0  0  0  0  0  0  0  0  0  0  0  0
    2.1110   61.8504   69.0209 H   0  0  0  0  0  0  0  0  0  0  0  0
    4.5037   63.4621   70.0048 H   0  0  0  0  0  0  0  0  0  0  0  0
    3.5549   63.7399   68.4832 H   0  0  0  0  0  0  0  0  0  0  0  0
    3.0569   65.1316   70.6817 H   0  0  0  0  0  0  0  0  0  0  0  0
    1.7279   64.5413   69.5844 H   0  0  0  0  0  0  0  0  0  0  0  0
    1.6600   64.2393   72.2576 H   0  0  0  0  0  0  0  0  0  0  0  0
    0.9342   63.0612   71.0859 H   0  0  0  0  0  0  0  0  0  0  0  0
    3.7209   62.8384   72.3050 H   0  0  0  0  0  0  0  0  0  0  0  0
    2.2674   61.9416   72.8610 H   0  0  0  0  0  0  0  0  0  0  0  0
  3  2  2  0
  4  3  1  0
  5  4  2  0
  6  5  1  0
  7  6  2  0
  7  2  1  0
  8  5  1  0
  9  8  1  0
  9  1  1  0
 10  9  1  0
 10  4  1  0
 11 10  2  0
 13 12  1  0
 13  2  1  0
 14  7  1  0
 15 14  1  0
 16  1  1  0
 17 16  2  0
 18 17  1  0
 19 18  2  0
 20 19  1  0
 21 20  2  0
 21 16  1  0
 22 19  1  0
 23 22  1  0
 24 22  1  0
 25 24  1  0
 26 25  1  0
 27 26  1  0
 28 27  1  0
 29 28  1  0
 29 24  1  0
  3 30  1  0
  6 31  1  0
  8 32  1  0
  8 33  1  0
  9 34  1  1
 12 35  1  0
 12 36  1  0
 12 37  1  0
 15 38  1  0
 15 39  1  0
 15 40  1  0
 17 41  1  0
 18 42  1  0
 20 43  1  0
 21 44  1  0
 22 45  1  6
 23 46  1  0
 23 47  1  0
 23 48  1  0
 24 49  1  0
 25 50  1  0
 25 51  1  0
 26 52  1  0
 26 53  1  0
 27 54  1  0
 27 55  1  0
 28 56  1  0
 28 57  1  0
 29 58  1  0
 29 59  1  0
M  CHG  1  24   1
M  END
>  <score>  (8) 
-7.825

$$$$
=
     RDKit          3D

 59 62  0  0  0  0  0  0  0  0999 V2000
    0.1170   56.1520   73.3190 O   0  0  0  0  0  0  0  0  0  0  0  0
    2.1670   57.3170   78.3470 C   0  0  0  0  0  0  0  0  0  0  0  0
    0.9720   56.8650   77.7820 C   0  0  0  0  0  0  0  0  0  0  0  0
    1.0380   56.2610   76.5400 C   0  0  0  0  0  0  0  0  0  0  0  0
    2.2230   56.0840   75.8430 C   0  0  0  0  0  0  0  0  0  0  0  0
    3.4190   56.5210   76.3930 C   0  0  0  0  0  0  0  0  0  0  0  0
    3.3970   57.1460   77.6500 C   0  0  0  0  0  0  0  0  0  0  0  0
    2.0220   55.3580   74.5490 C   0  0  0  0  0  0  0  0  0  0  0  0
    0.4830   55.2770   74.3800 C   0  0  1  0  0  0  0  0  0  0  0  0
   -0.0540   55.7200   75.7420 C   0  0  0  0  0  0  0  0  0  0  0  0
   -1.2090   55.6640   76.1330 O   0  0  0  0  0  0  0  0  0  0  0  0
    1.4120   59.0560   79.8060 C   0  0  0  0  0  0  0  0  0  0  0  0
    2.2570   57.9380   79.5690 O   0  0  0  0  0  0  0  0  0  0  0  0
    4.5140   57.6230   78.2910 O   0  0  0  0  0  0  0  0  0  0  0  0
    5.4170   56.6780   78.8470 C   0  0  0  0  0  0  0  0  0  0  0  0
    0.6990   57.3820   73.2370 C   0  0  0  0  0  0  0  0  0  0  0  0
    0.2350   58.5610   73.8130 C   0  0  0  0  0  0  0  0  0  0  0  0
    0.9550   59.7550   73.6660 C   0  0  0  0  0  0  0  0  0  0  0  0
    2.1510   59.7930   72.9370 C   0  0  0  0  0  0  0  0  0  0  0  0
    2.6000   58.6030   72.3420 C   0  0  0  0  0  0  0  0  0  0  0  0
    1.8790   57.4150   72.4930 C   0  0  0  0  0  0  0  0  0  0  0  0
    2.9550   61.0670   72.7400 C   0  0  2  0  0  0  0  0  0  0  0  0
    2.2850   62.3500   73.2450 C   0  0  0  0  0  0  0  0  0  0  0  0
    3.4240   61.2130   71.2890 N   0  0  0  0  0  4  0  0  0  0  0  0
    4.8130   61.8070   71.1420 C   0  0  0  0  0  0  0  0  0  0  0  0
    4.7530   63.1820   70.4990 C   0  0  0  0  0  0  0  0  0  0  0  0
    4.1170   63.1350   69.1110 C   0  0  0  0  0  0  0  0  0  0  0  0
    3.0360   62.0640   68.9910 C   0  0  0  0  0  0  0  0  0  0  0  0
    2.3840   61.7690   70.3330 C   0  0  0  0  0  0  0  0  0  0  0  0
    0.0126   56.9853   78.3066 H   0  0  0  0  0  0  0  0  0  0  0  0
    4.3676   56.3804   75.8541 H   0  0  0  0  0  0  0  0  0  0  0  0
    2.4751   55.9160   73.7164 H   0  0  0  0  0  0  0  0  0  0  0  0
    2.4940   54.3644   74.5508 H   0  0  0  0  0  0  0  0  0  0  0  0
    0.0848   54.2859   74.1170 H   0  0  0  0  0  0  0  0  0  0  0  0
    1.2983   59.2065   80.8897 H   0  0  0  0  0  0  0  0  0  0  0  0
    1.8584   59.9550   79.3559 H   0  0  0  0  0  0  0  0  0  0  0  0
    0.4254   58.8719   79.3559 H   0  0  0  0  0  0  0  0  0  0  0  0
    5.3696   56.7276   79.9449 H   0  0  0  0  0  0  0  0  0  0  0  0
    5.1410   55.6668   78.5134 H   0  0  0  0  0  0  0  0  0  0  0  0
    6.4397   56.9078   78.5134 H   0  0  0  0  0  0  0  0  0  0  0  0
   -0.7030   58.5560   74.3875 H   0  0  0  0  0  0  0  0  0  0  0  0
    0.5748   60.6768   74.1305 H   0  0  0  0  0  0  0  0  0  0  0  0
    3.5280   58.6057   71.7514 H   0  0  0  0  0  0  0  0  0  0  0  0
    2.2470   56.4933   72.0187 H   0  0  0  0  0  0  0  0  0  0  0  0
    3.8337   60.9423   73.3898 H   0  0  0  0  0  0  0  0  0  0  0  0
    2.2829   62.3540   74.3450 H   0  0  0  0  0  0  0  0  0  0  0  0
    2.8418   63.2240   72.8762 H   0  0  0  0  0  0  0  0  0  0  0  0
    1.2495   62.3925   72.8762 H   0  0  0  0  0  0  0  0  0  0  0  0
    3.5356   60.2415   70.9654 H   0  0  0  0  0  0  0  0  0  0  0  0
    5.2734   61.8952   72.1371 H   0  0  0  0  0  0  0  0  0  0  0  0
    5.4103   61.1451   70.4977 H   0  0  0  0  0  0  0  0  0  0  0  0
    4.1579   63.8487   71.1404 H   0  0  0  0  0  0  0  0  0  0  0  0
    5.7831   63.5521   70.3894 H   0  0  0  0  0  0  0  0  0  0  0  0
    3.6656   64.1152   68.8980 H   0  0  0  0  0  0  0  0  0  0  0  0
    4.9109   62.8860   68.3915 H   0  0  0  0  0  0  0  0  0  0  0  0
    2.2645   62.4135   68.2891 H   0  0  0  0  0  0  0  0  0  0  0  0
    3.5088   61.1391   68.6291 H   0  0  0  0  0  0  0  0  0  0  0  0
    1.9631   62.6967   70.7480 H   0  0  0  0  0  0  0  0  0  0  0  0
    1.5799   61.0310   70.1959 H   0  0  0  0  0  0  0  0  0  0  0  0
  3  2  2  0
  4  3  1  0
  5  4  2  0
  6  5  1  0
  7  6  2  0
  7  2  1  0
  8  5  1  0
  9  8  1  0
  9  1  1  0
 10  9  1  0
 10  4  1  0
 11 10  2  0
 13 12  1  0
 13  2  1  0
 14  7  1  0
 15 14  1  0
 16  1  1  0
 17 16  2  0
 18 17  1  0
 19 18  2  0
 20 19  1  0
 21 20  2  0
 21 16  1  0
 22 19  1  0
 23 22  1  0
 24 22  1  0
 25 24  1  0
 26 25  1  0
 27 26  1  0
 28 27  1  0
 29 28  1  0
 29 24  1  0
  3 30  1  0
  6 31  1  0
  8 32  1  0
  8 33  1  0
  9 34  1  6
 12 35  1  0
 12 36  1  0
 12 37  1  0
 15 38  1  0
 15 39  1  0
 15 40  1  0
 17 41  1  0
 18 42  1  0
 20 43  1  0
 21 44  1  0
 22 45  1  1
 23 46  1  0
 23 47  1  0
 23 48  1  0
 24 49  1  0
 25 50  1  0
 25 51  1  0
 26 52  1  0
 26 53  1  0
 27 54  1  0
 27 55  1  0
 28 56  1  0
 28 57  1  0
 29 58  1  0
 29 59  1  0
M  CHG  1  24   1
M  END
>  <score>  (9) 
-7.411

$$$$
