=
     RDKit          3D

 30 31  0  0  0  0  0  0  0  0999 V2000
    6.2820   71.0480   68.1310 C   0  0  0  0  0  0  0  0  0  0  0  0
    5.0840   70.8240   68.8100 C   0  0  0  0  0  0  0  0  0  0  0  0
    4.0240   70.1660   68.1830 C   0  0  0  0  0  0  0  0  0  0  0  0
    4.1420   69.7240   66.8580 C   0  0  0  0  0  0  0  0  0  0  0  0
    5.3500   69.9470   66.1630 C   0  0  0  0  0  0  0  0  0  0  0  0
    6.4100   70.6100   66.8110 C   0  0  0  0  0  0  0  0  0  0  0  0
    5.4660   69.4960   64.8390 C   0  0  0  0  0  0  0  0  0  0  0  0
    4.4050   68.8410   64.2090 C   0  0  0  0  0  0  0  0  0  0  0  0
    3.2010   68.6170   64.8850 C   0  0  0  0  0  0  0  0  0  0  0  0
    3.0850   69.0620   66.2120 C   0  0  0  0  0  0  0  0  0  0  0  0
    7.8710   70.9590   69.8950 C   0  0  0  0  0  0  0  0  0  0  0  0
    7.2390   71.7010   68.8600 O   0  0  0  0  0  0  0  0  0  0  0  0
    2.0440   67.9270   64.1770 C   0  0  2  0  0  0  0  0  0  0  0  0
    0.9000   68.9050   63.9110 C   0  0  0  0  0  0  0  0  0  0  0  0
    1.5710   66.6770   64.9490 C   0  0  0  0  0  0  0  0  0  0  0  0
    2.3180   65.6600   64.8280 O   0  0  0  0  0  0  0  0  0  0  0  0
    0.4850   66.7890   65.5900 O   0  0  0  0  0  1  0  0  0  0  0  0
    4.9735   71.1689   69.8487 H   0  0  0  0  0  0  0  0  0  0  0  0
    3.0878   69.9929   68.7339 H   0  0  0  0  0  0  0  0  0  0  0  0
    7.3517   70.7853   66.2702 H   0  0  0  0  0  0  0  0  0  0  0  0
    6.4049   69.6605   64.2900 H   0  0  0  0  0  0  0  0  0  0  0  0
    4.5176   68.4977   63.1700 H   0  0  0  0  0  0  0  0  0  0  0  0
    2.1457   68.8883   66.7574 H   0  0  0  0  0  0  0  0  0  0  0  0
    7.5444   71.3424   70.8729 H   0  0  0  0  0  0  0  0  0  0  0  0
    7.5950   69.8979   69.8064 H   0  0  0  0  0  0  0  0  0  0  0  0
    8.9625   71.0626   69.8064 H   0  0  0  0  0  0  0  0  0  0  0  0
    2.4079   67.5770   63.1997 H   0  0  0  0  0  0  0  0  0  0  0  0
    0.4884   69.2569   64.8685 H   0  0  0  0  0  0  0  0  0  0  0  0
    1.2778   69.7637   63.3366 H   0  0  0  0  0  0  0  0  0  0  0  0
    0.1105   68.3983   63.3366 H   0  0  0  0  0  0  0  0  0  0  0  0
  2  1  2  0
  3  2  1  0
  4  3  2  0
  5  4  1  0
  6  5  2  0
  6  1  1  0
  7  5  1  0
  8  7  2  0
  9  8  1  0
 10  9  2  0
 10  4  1  0
 12 11  1  0
 12  1  1  0
 13  9  1  0
 14 13  1  0
 15 13  1  0
 16 15  2  0
 17 15  1  0
  2 18  1  0
  3 19  1  0
  6 20  1  0
  7 21  1  0
  8 22  1  0
 10 23  1  0
 11 24  1  0
 11 25  1  0
 11 26  1  0
 13 27  1  6
 14 28  1  0
 14 29  1  0
 14 30  1  0
M  CHG  1  17  -1
M  END
>  <score>  (1) 
-9.845

$$$$
=
     RDKit          3D

 30 31  0  0  0  0  0  0  0  0999 V2000
    6.2180   70.9930   68.1970 C   0  0  0  0  0  0  0  0  0  0  0  0
    6.5670   70.6000   66.9050 C   0  0  0  0  0  0  0  0  0  0  0  0
    5.6390   69.9610   66.0810 C   0  0  0  0  0  0  0  0  0  0  0  0
    4.3400   69.6980   66.5380 C   0  0  0  0  0  0  0  0  0  0  0  0
    3.9770   70.0910   67.8450 C   0  0  0  0  0  0  0  0  0  0  0  0
    4.9250   70.7360   68.6630 C   0  0  0  0  0  0  0  0  0  0  0  0
    2.6740   69.8320   68.2960 C   0  0  0  0  0  0  0  0  0  0  0  0
    1.7450   69.1900   67.4730 C   0  0  0  0  0  0  0  0  0  0  0  0
    2.0930   68.7910   66.1780 C   0  0  0  0  0  0  0  0  0  0  0  0
    3.3940   69.0550   65.7220 C   0  0  0  0  0  0  0  0  0  0  0  0
    7.8300   70.8520   69.9360 C   0  0  0  0  0  0  0  0  0  0  0  0
    7.2190   71.6090   68.8990 O   0  0  0  0  0  0  0  0  0  0  0  0
    1.0790   68.0670   65.3040 C   0  0  2  0  0  0  0  0  0  0  0  0
    1.0100   68.6900   63.9100 C   0  0  0  0  0  0  0  0  0  0  0  0
   -0.3080   68.0040   65.9800 C   0  0  0  0  0  0  0  0  0  0  0  0
   -0.5830   66.8950   66.5300 O   0  0  0  0  0  0  0  0  0  0  0  0
   -1.0260   69.0420   65.8890 O   0  0  0  0  0  1  0  0  0  0  0  0
    7.5832   70.7955   66.5319 H   0  0  0  0  0  0  0  0  0  0  0  0
    5.9297   69.6610   65.0634 H   0  0  0  0  0  0  0  0  0  0  0  0
    4.6445   71.0416   69.6818 H   0  0  0  0  0  0  0  0  0  0  0  0
    2.3799   70.1383   69.3107 H   0  0  0  0  0  0  0  0  0  0  0  0
    0.7290   68.9962   67.8474 H   0  0  0  0  0  0  0  0  0  0  0  0
    3.6791   68.7519   64.7037 H   0  0  0  0  0  0  0  0  0  0  0  0
    7.5125   71.2454   70.9130 H   0  0  0  0  0  0  0  0  0  0  0  0
    7.5262   69.7984   69.8486 H   0  0  0  0  0  0  0  0  0  0  0  0
    8.9240   70.9266   69.8486 H   0  0  0  0  0  0  0  0  0  0  0  0
    1.4205   67.0286   65.1808 H   0  0  0  0  0  0  0  0  0  0  0  0
    0.8893   69.7796   64.0009 H   0  0  0  0  0  0  0  0  0  0  0  0
    1.9382   68.4683   63.3629 H   0  0  0  0  0  0  0  0  0  0  0  0
    0.1528   68.2705   63.3629 H   0  0  0  0  0  0  0  0  0  0  0  0
  2  1  2  0
  3  2  1  0
  4  3  2  0
  5  4  1  0
  6  5  2  0
  6  1  1  0
  7  5  1  0
  8  7  2  0
  9  8  1  0
 10  9  2  0
 10  4  1  0
 12 11  1  0
 12  1  1  0
 13  9  1  0
 14 13  1  0
 15 13  1  0
 16 15  2  0
 17 15  1  0
  2 18  1  0
  3 19  1  0
  6 20  1  0
  7 21  1  0
  8 22  1  0
 10 23  1  0
 11 24  1  0
 11 25  1  0
 11 26  1  0
 13 27  1  6
 14 28  1  0
 14 29  1  0
 14 30  1  0
M  CHG  1  17  -1
M  END
>  <score>  (2) 
-9.632

$$$$
=
     RDKit          3D

 30 31  0  0  0  0  0  0  0  0999 V2000
    3.7480   68.4880   62.5210 C   0  0  0  0  0  0  0  0  0  0  0  0
    5.0630   68.9490   62.6000 C   0  0  0  0  0  0  0  0  0  0  0  0
    5.5770   69.4250   63.8080 C   0  0  0  0  0  0  0  0  0  0  0  0
    4.7800   69.4540   64.9620 C   0  0  0  0  0  0  0  0  0  0  0  0
    3.4490   68.9900   64.8900 C   0  0  0  0  0  0  0  0  0  0  0  0
    2.9460   68.5120   63.6640 C   0  0  0  0  0  0  0  0  0  0  0  0
    2.6570   69.0150   66.0480 C   0  0  0  0  0  0  0  0  0  0  0  0
    3.1700   69.4940   67.2570 C   0  0  0  0  0  0  0  0  0  0  0  0
    4.4860   69.9600   67.3410 C   0  0  0  0  0  0  0  0  0  0  0  0
    5.2820   69.9300   66.1840 C   0  0  0  0  0  0  0  0  0  0  0  0
    3.3190   69.0240   60.2460 C   0  0  0  0  0  0  0  0  0  0  0  0
    3.3700   68.0490   61.2800 O   0  0  0  0  0  0  0  0  0  0  0  0
    5.0210   70.5040   68.6570 C   0  0  2  0  0  0  0  0  0  0  0  0
    3.9000   71.1270   69.4900 C   0  0  0  0  0  0  0  0  0  0  0  0
    6.1900   71.4870   68.4300 C   0  0  0  0  0  0  0  0  0  0  0  0
    5.8540   72.6190   67.9680 O   0  0  0  0  0  0  0  0  0  0  0  0
    7.3490   71.0540   68.6980 O   0  0  0  0  0  1  0  0  0  0  0  0
    5.6998   68.9373   61.7032 H   0  0  0  0  0  0  0  0  0  0  0  0
    6.6169   69.7806   63.8551 H   0  0  0  0  0  0  0  0  0  0  0  0
    1.9079   68.1529   63.6063 H   0  0  0  0  0  0  0  0  0  0  0  0
    1.6192   68.6531   66.0039 H   0  0  0  0  0  0  0  0  0  0  0  0
    2.5313   69.5045   68.1525 H   0  0  0  0  0  0  0  0  0  0  0  0
    6.3211   70.2871   66.2364 H   0  0  0  0  0  0  0  0  0  0  0  0
    3.2665   70.0284   60.6914 H   0  0  0  0  0  0  0  0  0  0  0  0
    4.2225   68.9458   59.6234 H   0  0  0  0  0  0  0  0  0  0  0  0
    2.4286   68.8520   59.6234 H   0  0  0  0  0  0  0  0  0  0  0  0
    5.4248   69.6583   69.2329 H   0  0  0  0  0  0  0  0  0  0  0  0
    4.1250   71.0020   70.5595 H   0  0  0  0  0  0  0  0  0  0  0  0
    3.8206   72.1986   69.2549 H   0  0  0  0  0  0  0  0  0  0  0  0
    2.9480   70.6285   69.2549 H   0  0  0  0  0  0  0  0  0  0  0  0
  2  1  2  0
  3  2  1  0
  4  3  2  0
  5  4  1  0
  6  5  2  0
  6  1  1  0
  7  5  1  0
  8  7  2  0
  9  8  1  0
 10  9  2  0
 10  4  1  0
 12 11  1  0
 12  1  1  0
 13  9  1  0
 14 13  1  0
 15 13  1  0
 16 15  2  0
 17 15  1  0
  2 18  1  0
  3 19  1  0
  6 20  1  0
  7 21  1  0
  8 22  1  0
 10 23  1  0
 11 24  1  0
 11 25  1  0
 11 26  1  0
 13 27  1  1
 14 28  1  0
 14 29  1  0
 14 30  1  0
M  CHG  1  17  -1
M  END
>  <score>  (3) 
-9.57

$$$$
=
     RDKit          3D

 30 31  0  0  0  0  0  0  0  0999 V2000
    5.2600   70.2540   68.0300 C   0  0  0  0  0  0  0  0  0  0  0  0
    6.1230   70.2530   66.9340 C   0  0  0  0  0  0  0  0  0  0  0  0
    5.6660   69.8750   65.6700 C   0  0  0  0  0  0  0  0  0  0  0  0
    4.3330   69.4840   65.4800 C   0  0  0  0  0  0  0  0  0  0  0  0
    3.4530   69.4820   66.5830 C   0  0  0  0  0  0  0  0  0  0  0  0
    3.9290   69.8680   67.8510 C   0  0  0  0  0  0  0  0  0  0  0  0
    2.1180   69.0970   66.3870 C   0  0  0  0  0  0  0  0  0  0  0  0
    1.6600   68.7150   65.1230 C   0  0  0  0  0  0  0  0  0  0  0  0
    2.5230   68.7090   64.0220 C   0  0  0  0  0  0  0  0  0  0  0  0
    3.8580   69.1000   64.2150 C   0  0  0  0  0  0  0  0  0  0  0  0
    7.2040   71.0230   69.1590 C   0  0  0  0  0  0  0  0  0  0  0  0
    5.8340   70.6460   69.2100 O   0  0  0  0  0  0  0  0  0  0  0  0
    2.0170   68.2640   62.6580 C   0  0  2  0  0  0  0  0  0  0  0  0
    2.9810   68.6860   61.5490 C   0  0  0  0  0  0  0  0  0  0  0  0
    0.5790   68.7620   62.3970 C   0  0  0  0  0  0  0  0  0  0  0  0
    0.4990   69.9210   61.8910 O   0  0  0  0  0  0  0  0  0  0  0  0
   -0.3580   67.9810   62.7400 O   0  0  0  0  0  1  0  0  0  0  0  0
    7.1730   70.5527   67.0668 H   0  0  0  0  0  0  0  0  0  0  0  0
    6.3583   69.8840   64.8152 H   0  0  0  0  0  0  0  0  0  0  0  0
    3.2441   69.8656   68.7117 H   0  0  0  0  0  0  0  0  0  0  0  0
    1.4227   69.0958   67.2394 H   0  0  0  0  0  0  0  0  0  0  0  0
    0.6095   68.4158   64.9925 H   0  0  0  0  0  0  0  0  0  0  0  0
    4.5465   69.1057   63.3571 H   0  0  0  0  0  0  0  0  0  0  0  0
    7.5932   71.1301   70.1823 H   0  0  0  0  0  0  0  0  0  0  0  0
    7.7777   70.2493   68.6276 H   0  0  0  0  0  0  0  0  0  0  0  0
    7.3011   71.9812   68.6276 H   0  0  0  0  0  0  0  0  0  0  0  0
    1.9778   67.1647   62.6554 H   0  0  0  0  0  0  0  0  0  0  0  0
    3.9014   69.0889   61.9969 H   0  0  0  0  0  0  0  0  0  0  0  0
    3.2278   67.8136   60.9261 H   0  0  0  0  0  0  0  0  0  0  0  0
    2.5074   69.4591   60.9261 H   0  0  0  0  0  0  0  0  0  0  0  0
  2  1  2  0
  3  2  1  0
  4  3  2  0
  5  4  1  0
  6  5  2  0
  6  1  1  0
  7  5  1  0
  8  7  2  0
  9  8  1  0
 10  9  2  0
 10  4  1  0
 12 11  1  0
 12  1  1  0
 13  9  1  0
 14 13  1  0
 15 13  1  0
 16 15  2  0
 17 15  1  0
  2 18  1  0
  3 19  1  0
  6 20  1  0
  7 21  1  0
  8 22  1  0
 10 23  1  0
 11 24  1  0
 11 25  1  0
 11 26  1  0
 13 27  1  1
 14 28  1  0
 14 29  1  0
 14 30  1  0
M  CHG  1  17  -1
M  END
>  <score>  (4) 
-9.553

$$$$
=
     RDKit          3D

 30 31  0  0  0  0  0  0  0  0999 V2000
    5.4110   70.5270   68.5590 C   0  0  0  0  0  0  0  0  0  0  0  0
    4.0680   70.2490   68.8110 C   0  0  0  0  0  0  0  0  0  0  0  0
    3.2340   69.7870   67.7900 C   0  0  0  0  0  0  0  0  0  0  0  0
    3.7300   69.6000   66.4920 C   0  0  0  0  0  0  0  0  0  0  0  0
    5.0880   69.8790   66.2280 C   0  0  0  0  0  0  0  0  0  0  0  0
    5.9160   70.3430   67.2690 C   0  0  0  0  0  0  0  0  0  0  0  0
    5.5820   69.6840   64.9300 C   0  0  0  0  0  0  0  0  0  0  0  0
    4.7480   69.2250   63.9070 C   0  0  0  0  0  0  0  0  0  0  0  0
    3.3990   68.9480   64.1550 C   0  0  0  0  0  0  0  0  0  0  0  0
    2.9040   69.1370   65.4550 C   0  0  0  0  0  0  0  0  0  0  0  0
    7.5340   70.9570   69.5330 C   0  0  0  0  0  0  0  0  0  0  0  0
    6.1170   70.9720   69.6440 O   0  0  0  0  0  0  0  0  0  0  0  0
    2.4970   68.4760   63.0240 C   0  0  2  0  0  0  0  0  0  0  0  0
    1.6440   67.2850   63.4620 C   0  0  0  0  0  0  0  0  0  0  0  0
    3.3050   68.1710   61.7440 C   0  0  0  0  0  0  0  0  0  0  0  0
    3.9150   67.0600   61.7500 O   0  0  0  0  0  0  0  0  0  0  0  0
    3.2960   69.0650   60.8470 O   0  0  0  0  0  1  0  0  0  0  0  0
    3.6617   70.3948   69.8228 H   0  0  0  0  0  0  0  0  0  0  0  0
    2.1780   69.5678   68.0065 H   0  0  0  0  0  0  0  0  0  0  0  0
    6.9740   70.5634   67.0638 H   0  0  0  0  0  0  0  0  0  0  0  0
    6.6398   69.8951   64.7144 H   0  0  0  0  0  0  0  0  0  0  0  0
    5.1563   69.0799   62.8960 H   0  0  0  0  0  0  0  0  0  0  0  0
    1.8469   68.9178   65.6658 H   0  0  0  0  0  0  0  0  0  0  0  0
    7.9805   70.9523   70.5383 H   0  0  0  0  0  0  0  0  0  0  0  0
    7.8495   70.0555   68.9874 H   0  0  0  0  0  0  0  0  0  0  0  0
    7.8685   71.8517   68.9874 H   0  0  0  0  0  0  0  0  0  0  0  0
    1.8087   69.2976   62.7765 H   0  0  0  0  0  0  0  0  0  0  0  0
    1.6124   67.2409   64.5607 H   0  0  0  0  0  0  0  0  0  0  0  0
    0.6228   67.4016   63.0702 H   0  0  0  0  0  0  0  0  0  0  0  0
    2.0831   66.3557   63.0702 H   0  0  0  0  0  0  0  0  0  0  0  0
  2  1  2  0
  3  2  1  0
  4  3  2  0
  5  4  1  0
  6  5  2  0
  6  1  1  0
  7  5  1  0
  8  7  2  0
  9  8  1  0
 10  9  2  0
 10  4  1  0
 12 11  1  0
 12  1  1  0
 13  9  1  0
 14 13  1  0
 15 13  1  0
 16 15  2  0
 17 15  1  0
  2 18  1  0
  3 19  1  0
  6 20  1  0
  7 21  1  0
  8 22  1  0
 10 23  1  0
 11 24  1  0
 11 25  1  0
 11 26  1  0
 13 27  1  6
 14 28  1  0
 14 29  1  0
 14 30  1  0
M  CHG  1  17  -1
M  END
>  <score>  (5) 
-9.113

$$$$
=
     RDKit          3D

 30 31  0  0  0  0  0  0  0  0999 V2000
    5.4660   70.1230   66.9060 C   0  0  0  0  0  0  0  0  0  0  0  0
    5.2920   69.5070   65.6670 C   0  0  0  0  0  0  0  0  0  0  0  0
    4.0550   68.9650   65.3100 C   0  0  0  0  0  0  0  0  0  0  0  0
    2.9670   69.0250   66.1930 C   0  0  0  0  0  0  0  0  0  0  0  0
    3.1340   69.6470   67.4490 C   0  0  0  0  0  0  0  0  0  0  0  0
    4.3880   70.1900   67.7930 C   0  0  0  0  0  0  0  0  0  0  0  0
    2.0420   69.7110   68.3260 C   0  0  0  0  0  0  0  0  0  0  0  0
    0.8050   69.1660   67.9720 C   0  0  0  0  0  0  0  0  0  0  0  0
    0.6270   68.5440   66.7320 C   0  0  0  0  0  0  0  0  0  0  0  0
    1.7170   68.4840   65.8500 C   0  0  0  0  0  0  0  0  0  0  0  0
    6.9690   71.1830   68.4090 C   0  0  0  0  0  0  0  0  0  0  0  0
    6.7250   70.6130   67.1300 O   0  0  0  0  0  0  0  0  0  0  0  0
   -0.7180   67.9310   66.3720 C   0  0  2  0  0  0  0  0  0  0  0  0
   -1.6730   68.9870   65.8150 C   0  0  0  0  0  0  0  0  0  0  0  0
   -1.3310   67.1670   67.5660 C   0  0  0  0  0  0  0  0  0  0  0  0
   -2.5390   67.4550   67.8200 O   0  0  0  0  0  0  0  0  0  0  0  0
   -0.5620   66.3670   68.1760 O   0  0  0  0  0  1  0  0  0  0  0  0
    6.1364   69.4474   64.9645 H   0  0  0  0  0  0  0  0  0  0  0  0
    3.9331   68.4866   64.3270 H   0  0  0  0  0  0  0  0  0  0  0  0
    4.5202   70.6729   68.7724 H   0  0  0  0  0  0  0  0  0  0  0  0
    2.1606   70.1967   69.3058 H   0  0  0  0  0  0  0  0  0  0  0  0
   -0.0379   69.2268   68.6762 H   0  0  0  0  0  0  0  0  0  0  0  0
    1.5897   68.0029   64.8690 H   0  0  0  0  0  0  0  0  0  0  0  0
    6.6647   70.4721   69.1913 H   0  0  0  0  0  0  0  0  0  0  0  0
    8.0412   71.4056   68.5127 H   0  0  0  0  0  0  0  0  0  0  0  0
    6.3899   72.1124   68.5127 H   0  0  0  0  0  0  0  0  0  0  0  0
   -0.5483   67.1917   65.5753 H   0  0  0  0  0  0  0  0  0  0  0  0
   -2.1555   69.5205   66.6472 H   0  0  0  0  0  0  0  0  0  0  0  0
   -1.1092   69.7026   65.1985 H   0  0  0  0  0  0  0  0  0  0  0  0
   -2.4415   68.4977   65.1985 H   0  0  0  0  0  0  0  0  0  0  0  0
  2  1  2  0
  3  2  1  0
  4  3  2  0
  5  4  1  0
  6  5  2  0
  6  1  1  0
  7  5  1  0
  8  7  2  0
  9  8  1  0
 10  9  2  0
 10  4  1  0
 12 11  1  0
 12  1  1  0
 13  9  1  0
 14 13  1  0
 15 13  1  0
 16 15  2  0
 17 15  1  0
  2 18  1  0
  3 19  1  0
  6 20  1  0
  7 21  1  0
  8 22  1  0
 10 23  1  0
 11 24  1  0
 11 25  1  0
 11 26  1  0
 13 27  1  6
 14 28  1  0
 14 29  1  0
 14 30  1  0
M  CHG  1  17  -1
M  END
>  <score>  (6) 
-8.968

$$$$
=
     RDKit          3D

 30 31  0  0  0  0  0  0  0  0999 V2000
    0.0690   67.8540   66.4800 C   0  0  0  0  0  0  0  0  0  0  0  0
    0.7410   67.7560   65.2620 C   0  0  0  0  0  0  0  0  0  0  0  0
    2.0290   68.2770   65.1180 C   0  0  0  0  0  0  0  0  0  0  0  0
    2.6670   68.9140   66.1920 C   0  0  0  0  0  0  0  0  0  0  0  0
    1.9930   69.0180   67.4280 C   0  0  0  0  0  0  0  0  0  0  0  0
    0.6950   68.4860   67.5580 C   0  0  0  0  0  0  0  0  0  0  0  0
    2.6380   69.6500   68.5020 C   0  0  0  0  0  0  0  0  0  0  0  0
    3.9250   70.1750   68.3570 C   0  0  0  0  0  0  0  0  0  0  0  0
    4.6020   70.0810   67.1370 C   0  0  0  0  0  0  0  0  0  0  0  0
    3.9610   69.4440   66.0620 C   0  0  0  0  0  0  0  0  0  0  0  0
   -1.7090   66.9290   67.7560 C   0  0  0  0  0  0  0  0  0  0  0  0
   -1.1840   67.3030   66.4880 O   0  0  0  0  0  0  0  0  0  0  0  0
    5.9910   70.6830   66.9870 C   0  0  2  0  0  0  0  0  0  0  0  0
    7.0320   69.6000   66.7060 C   0  0  0  0  0  0  0  0  0  0  0  0
    6.3690   71.5480   68.2090 C   0  0  0  0  0  0  0  0  0  0  0  0
    5.9130   72.7300   68.1880 O   0  0  0  0  0  0  0  0  0  0  0  0
    7.1100   71.0010   69.0780 O   0  0  0  0  0  1  0  0  0  0  0  0
    0.2528   67.2644   64.4076 H   0  0  0  0  0  0  0  0  0  0  0  0
    2.5480   68.1867   64.1524 H   0  0  0  0  0  0  0  0  0  0  0  0
    0.1677   68.5690   68.5198 H   0  0  0  0  0  0  0  0  0  0  0  0
    2.1238   69.7333   69.4709 H   0  0  0  0  0  0  0  0  0  0  0  0
    4.4109   70.6677   69.2121 H   0  0  0  0  0  0  0  0  0  0  0  0
    4.4835   69.3584   65.0978 H   0  0  0  0  0  0  0  0  0  0  0  0
   -1.0914   67.3690   68.5528 H   0  0  0  0  0  0  0  0  0  0  0  0
   -2.7419   67.2959   67.8479 H   0  0  0  0  0  0  0  0  0  0  0  0
   -1.6997   65.8329   67.8479 H   0  0  0  0  0  0  0  0  0  0  0  0
    5.9751   71.3544   66.1158 H   0  0  0  0  0  0  0  0  0  0  0  0
    7.4139   69.2027   67.6580 H   0  0  0  0  0  0  0  0  0  0  0  0
    6.5682   68.7865   66.1289 H   0  0  0  0  0  0  0  0  0  0  0  0
    7.8632   70.0313   66.1289 H   0  0  0  0  0  0  0  0  0  0  0  0
  2  1  2  0
  3  2  1  0
  4  3  2  0
  5  4  1  0
  6  5  2  0
  6  1  1  0
  7  5  1  0
  8  7  2  0
  9  8  1  0
 10  9  2  0
 10  4  1  0
 12 11  1  0
 12  1  1  0
 13  9  1  0
 14 13  1  0
 15 13  1  0
 16 15  2  0
 17 15  1  0
  2 18  1  0
  3 19  1  0
  6 20  1  0
  7 21  1  0
  8 22  1  0
 10 23  1  0
 11 24  1  0
 11 25  1  0
 11 26  1  0
 13 27  1  6
 14 28  1  0
 14 29  1  0
 14 30  1  0
M  CHG  1  17  -1
M  END
>  <score>  (7) 
-8.736

$$$$
=
     RDKit          3D

 30 31  0  0  0  0  0  0  0  0999 V2000
    6.1300   70.7500   68.5740 C   0  0  0  0  0  0  0  0  0  0  0  0
    6.9280   70.6980   67.4310 C   0  0  0  0  0  0  0  0  0  0  0  0
    6.4030   70.2500   66.2170 C   0  0  0  0  0  0  0  0  0  0  0  0
    5.0660   69.8390   66.1260 C   0  0  0  0  0  0  0  0  0  0  0  0
    4.2510   69.8870   67.2770 C   0  0  0  0  0  0  0  0  0  0  0  0
    4.7960   70.3430   68.4940 C   0  0  0  0  0  0  0  0  0  0  0  0
    2.9110   69.4810   67.1800 C   0  0  0  0  0  0  0  0  0  0  0  0
    2.3860   69.0300   65.9660 C   0  0  0  0  0  0  0  0  0  0  0  0
    3.1830   68.9730   64.8190 C   0  0  0  0  0  0  0  0  0  0  0  0
    4.5230   69.3850   64.9130 C   0  0  0  0  0  0  0  0  0  0  0  0
    7.1240   70.2350   70.6690 C   0  0  0  0  0  0  0  0  0  0  0  0
    6.7660   71.2080   69.6960 O   0  0  0  0  0  0  0  0  0  0  0  0
    2.6040   68.4530   63.5120 C   0  0  2  0  0  0  0  0  0  0  0  0
    1.1120   68.1530   63.6520 C   0  0  0  0  0  0  0  0  0  0  0  0
    3.3950   67.2340   62.9870 C   0  0  0  0  0  0  0  0  0  0  0  0
    3.8170   67.3430   61.7970 O   0  0  0  0  0  0  0  0  0  0  0  0
    3.5100   66.2550   63.7820 O   0  0  0  0  0  1  0  0  0  0  0  0
    7.9805   71.0128   67.4865 H   0  0  0  0  0  0  0  0  0  0  0  0
    7.0445   70.2194   65.3240 H   0  0  0  0  0  0  0  0  0  0  0  0
    4.1627   70.3789   69.3927 H   0  0  0  0  0  0  0  0  0  0  0  0
    2.2662   69.5183   68.0704 H   0  0  0  0  0  0  0  0  0  0  0  0
    1.3331   68.7161   65.9123 H   0  0  0  0  0  0  0  0  0  0  0  0
    5.1605   69.3512   64.0172 H   0  0  0  0  0  0  0  0  0  0  0  0
    6.9713   70.6501   71.6761 H   0  0  0  0  0  0  0  0  0  0  0  0
    6.4960   69.3409   70.5418 H   0  0  0  0  0  0  0  0  0  0  0  0
    8.1818   69.9612   70.5418 H   0  0  0  0  0  0  0  0  0  0  0  0
    2.7073   69.2471   62.7579 H   0  0  0  0  0  0  0  0  0  0  0  0
    0.8472   68.0998   64.7183 H   0  0  0  0  0  0  0  0  0  0  0  0
    0.5304   68.9522   63.1692 H   0  0  0  0  0  0  0  0  0  0  0  0
    0.8845   67.1911   63.1692 H   0  0  0  0  0  0  0  0  0  0  0  0
  2  1  2  0
  3  2  1  0
  4  3  2  0
  5  4  1  0
  6  5  2  0
  6  1  1  0
  7  5  1  0
  8  7  2  0
  9  8  1  0
 10  9  2  0
 10  4  1  0
 12 11  1  0
 12  1  1  0
 13  9  1  0
 14 13  1  0
 15 13  1  0
 16 15  2  0
 17 15  1  0
  2 18  1  0
  3 19  1  0
  6 20  1  0
  7 21  1  0
  8 22  1  0
 10 23  1  0
 11 24  1  0
 11 25  1  0
 11 26  1  0
 13 27  1  6
 14 28  1  0
 14 29  1  0
 14 30  1  0
M  CHG  1  17  -1
M  END
>  <score>  (8) 
-8.697

$$$$
=
     RDKit          3D

 30 31  0  0  0  0  0  0  0  0999 V2000
    4.8860   70.5790   68.1280 C   0  0  0  0  0  0  0  0  0  0  0  0
    3.9330   70.8130   69.1190 C   0  0  0  0  0  0  0  0  0  0  0  0
    2.6290   70.3300   68.9800 C   0  0  0  0  0  0  0  0  0  0  0  0
    2.2530   69.6070   67.8390 C   0  0  0  0  0  0  0  0  0  0  0  0
    3.2110   69.3660   66.8310 C   0  0  0  0  0  0  0  0  0  0  0  0
    4.5220   69.8580   66.9880 C   0  0  0  0  0  0  0  0  0  0  0  0
    2.8330   68.6360   65.6940 C   0  0  0  0  0  0  0  0  0  0  0  0
    1.5280   68.1550   65.5520 C   0  0  0  0  0  0  0  0  0  0  0  0
    0.5680   68.3910   66.5420 C   0  0  0  0  0  0  0  0  0  0  0  0
    0.9470   69.1160   67.6830 C   0  0  0  0  0  0  0  0  0  0  0  0
    7.2240   70.5100   67.7120 C   0  0  0  0  0  0  0  0  0  0  0  0
    6.1230   71.1040   68.3880 O   0  0  0  0  0  0  0  0  0  0  0  0
   -0.8550   67.8860   66.3600 C   0  0  2  0  0  0  0  0  0  0  0  0
   -1.7920   69.0200   65.9460 C   0  0  0  0  0  0  0  0  0  0  0  0
   -1.3600   67.1470   67.6190 C   0  0  0  0  0  0  0  0  0  0  0  0
   -0.5110   66.3790   68.1630 O   0  0  0  0  0  0  0  0  0  0  0  0
   -2.5620   67.3610   67.9530 O   0  0  0  0  0  1  0  0  0  0  0  0
    4.2102   71.3829   70.0181 H   0  0  0  0  0  0  0  0  0  0  0  0
    1.8906   70.5188   69.7732 H   0  0  0  0  0  0  0  0  0  0  0  0
    5.2690   69.6719   66.2023 H   0  0  0  0  0  0  0  0  0  0  0  0
    3.5730   68.4396   64.9041 H   0  0  0  0  0  0  0  0  0  0  0  0
    1.2531   67.5849   64.6523 H   0  0  0  0  0  0  0  0  0  0  0  0
    0.2041   69.3035   68.4723 H   0  0  0  0  0  0  0  0  0  0  0  0
    7.9418   70.1227   68.4501 H   0  0  0  0  0  0  0  0  0  0  0  0
    6.8645   69.6834   67.0815 H   0  0  0  0  0  0  0  0  0  0  0  0
    7.7174   71.2643   67.0815 H   0  0  0  0  0  0  0  0  0  0  0  0
   -0.8495   67.1513   65.5413 H   0  0  0  0  0  0  0  0  0  0  0  0
   -2.1958   69.5087   66.8450 H   0  0  0  0  0  0  0  0  0  0  0  0
   -1.2350   69.7559   65.3475 H   0  0  0  0  0  0  0  0  0  0  0  0
   -2.6197   68.6117   65.3475 H   0  0  0  0  0  0  0  0  0  0  0  0
  2  1  2  0
  3  2  1  0
  4  3  2  0
  5  4  1  0
  6  5  2  0
  6  1  1  0
  7  5  1  0
  8  7  2  0
  9  8  1  0
 10  9  2  0
 10  4  1  0
 12 11  1  0
 12  1  1  0
 13  9  1  0
 14 13  1  0
 15 13  1  0
 16 15  2  0
 17 15  1  0
  2 18  1  0
  3 19  1  0
  6 20  1  0
  7 21  1  0
  8 22  1  0
 10 23  1  0
 11 24  1  0
 11 25  1  0
 11 26  1  0
 13 27  1  6
 14 28  1  0
 14 29  1  0
 14 30  1  0
M  CHG  1  17  -1
M  END
>  <score>  (9) 
-8.675

$$$$
