=
     RDKit          3D

 52 54  0  0  0  0  0  0  0  0999 V2000
    0.1460   65.9340   69.6300 C   0  0  0  0  0  0  0  0  0  0  0  0
   -0.7220   66.4650   68.6660 C   0  0  0  0  0  0  0  0  0  0  0  0
   -0.3880   67.6350   67.9740 C   0  0  0  0  0  0  0  0  0  0  0  0
    0.8170   68.2880   68.2420 C   0  0  0  0  0  0  0  0  0  0  0  0
    1.6790   67.7690   69.2100 C   0  0  0  0  0  0  0  0  0  0  0  0
    1.3480   66.6010   69.9000 C   0  0  0  0  0  0  0  0  0  0  0  0
   -0.2180   64.6810   70.3940 C   0  0  0  0  0  0  0  0  0  0  0  0
    0.5530   63.5610   69.8720 N   0  0  0  0  0  0  0  0  0  0  0  0
    3.1600   61.5580   72.4960 C   0  0  0  0  0  0  0  0  0  0  0  0
    3.2580   61.2990   71.1210 C   0  0  0  0  0  0  0  0  0  0  0  0
    2.3820   61.9480   70.2440 C   0  0  0  0  0  0  0  0  0  0  0  0
    1.4090   62.8430   70.7140 C   0  0  0  0  0  0  0  0  0  0  0  0
    1.3840   63.1350   72.0890 C   0  0  0  0  0  0  0  0  0  0  0  0
    2.2460   62.4990   72.9880 C   0  0  0  0  0  0  0  0  0  0  0  0
    3.4820   59.7200   73.8280 C   0  0  0  0  0  0  0  0  0  0  0  0
    4.0390   60.9470   73.3630 O   0  0  0  0  0  0  0  0  0  0  0  0
    4.2150   60.3910   70.7410 O   0  0  0  0  0  0  0  0  0  0  0  0
    3.8140   59.3630   69.8460 C   0  0  0  0  0  0  0  0  0  0  0  0
    2.2620   62.7140   74.3440 O   0  0  0  0  0  0  0  0  0  0  0  0
    1.1630   63.4200   74.9020 C   0  0  0  0  0  0  0  0  0  0  0  0
    1.2580   69.4450   67.6340 O   0  0  0  0  0  0  0  0  0  0  0  0
    2.5970   69.5490   67.3230 C   0  0  0  0  0  0  0  0  0  0  0  0
    3.4770   70.1340   68.2540 C   0  0  0  0  0  0  0  0  0  0  0  0
    4.8100   70.3260   67.8790 C   0  0  0  0  0  0  0  0  0  0  0  0
    5.2790   69.8870   66.6370 C   0  0  0  0  0  0  0  0  0  0  0  0
    4.4030   69.2880   65.7330 C   0  0  0  0  0  0  0  0  0  0  0  0
    3.0570   69.1330   66.0670 C   0  0  0  0  0  0  0  0  0  0  0  0
    1.9970   68.4240   64.9030 Cl  0  0  0  0  0  0  0  0  0  0  0  0
    3.0060   70.7150   69.4440 N   0  0  0  0  0  0  0  0  0  0  0  0
   -1.6742   65.9577   68.4514 H   0  0  0  0  0  0  0  0  0  0  0  0
   -1.0760   68.0408   67.2177 H   0  0  0  0  0  0  0  0  0  0  0  0
    2.6257   68.2839   69.4307 H   0  0  0  0  0  0  0  0  0  0  0  0
    2.0355   66.2021   70.6604 H   0  0  0  0  0  0  0  0  0  0  0  0
    0.0119   64.8206   71.4606 H   0  0  0  0  0  0  0  0  0  0  0  0
   -1.2925   64.4762   70.2777 H   0  0  0  0  0  0  0  0  0  0  0  0
    0.4678   63.2968   68.8801 H   0  0  0  0  0  0  0  0  0  0  0  0
    2.4577   61.7526   69.1641 H   0  0  0  0  0  0  0  0  0  0  0  0
    0.6696   63.8813   72.4666 H   0  0  0  0  0  0  0  0  0  0  0  0
    3.4786   59.7124   74.9280 H   0  0  0  0  0  0  0  0  0  0  0  0
    2.4510   59.6216   73.4574 H   0  0  0  0  0  0  0  0  0  0  0  0
    4.0866   58.8791   73.4574 H   0  0  0  0  0  0  0  0  0  0  0  0
    3.4731   58.4891   70.4205 H   0  0  0  0  0  0  0  0  0  0  0  0
    2.9925   59.7284   69.2123 H   0  0  0  0  0  0  0  0  0  0  0  0
    4.6660   59.0756   69.2123 H   0  0  0  0  0  0  0  0  0  0  0  0
    1.2221   63.3820   75.9998 H   0  0  0  0  0  0  0  0  0  0  0  0
    1.1934   64.4680   74.5692 H   0  0  0  0  0  0  0  0  0  0  0  0
    0.2225   62.9567   74.5692 H   0  0  0  0  0  0  0  0  0  0  0  0
    5.5003   70.8300   68.5714 H   0  0  0  0  0  0  0  0  0  0  0  0
    6.3393   70.0143   66.3732 H   0  0  0  0  0  0  0  0  0  0  0  0
    4.7723   68.9380   64.7577 H   0  0  0  0  0  0  0  0  0  0  0  0
    3.6698   71.1366   70.1092 H   0  0  0  0  0  0  0  0  0  0  0  0
    1.9970   70.7191   69.6509 H   0  0  0  0  0  0  0  0  0  0  0  0
  2  1  2  0
  3  2  1  0
  4  3  2  0
  5  4  1  0
  6  5  2  0
  6  1  1  0
  7  1  1  0
  8  7  1  0
 10  9  2  0
 11 10  1  0
 12 11  2  0
 12  8  1  0
 13 12  1  0
 14 13  2  0
 14  9  1  0
 16 15  1  0
 16  9  1  0
 17 10  1  0
 18 17  1  0
 19 14  1  0
 20 19  1  0
 21  4  1  0
 22 21  1  0
 23 22  2  0
 24 23  1  0
 25 24  2  0
 26 25  1  0
 27 26  2  0
 27 22  1  0
 28 27  1  0
 29 23  1  0
  2 30  1  0
  3 31  1  0
  5 32  1  0
  6 33  1  0
  7 34  1  0
  7 35  1  0
  8 36  1  0
 11 37  1  0
 13 38  1  0
 15 39  1  0
 15 40  1  0
 15 41  1  0
 18 42  1  0
 18 43  1  0
 18 44  1  0
 20 45  1  0
 20 46  1  0
 20 47  1  0
 24 48  1  0
 25 49  1  0
 26 50  1  0
 29 51  1  0
 29 52  1  0
M  END
>  <score>  (1) 
-9.275

$$$$
=
     RDKit          3D

 52 54  0  0  0  0  0  0  0  0999 V2000
    0.6940   65.2230   70.6030 C   0  0  0  0  0  0  0  0  0  0  0  0
    1.9600   64.7430   70.2390 C   0  0  0  0  0  0  0  0  0  0  0  0
    2.6210   63.8010   71.0340 C   0  0  0  0  0  0  0  0  0  0  0  0
    2.0240   63.3290   72.2060 C   0  0  0  0  0  0  0  0  0  0  0  0
    0.7680   63.8140   72.5790 C   0  0  0  0  0  0  0  0  0  0  0  0
    0.1070   64.7520   71.7850 C   0  0  0  0  0  0  0  0  0  0  0  0
   -0.0160   66.2540   69.7570 C   0  0  0  0  0  0  0  0  0  0  0  0
    0.9580   67.2160   69.2580 N   0  0  0  0  0  0  0  0  0  0  0  0
    0.8140   68.7680   65.3510 C   0  0  0  0  0  0  0  0  0  0  0  0
   -0.3780   68.3280   65.9450 C   0  0  0  0  0  0  0  0  0  0  0  0
   -0.3350   67.7940   67.2380 C   0  0  0  0  0  0  0  0  0  0  0  0
    0.8730   67.6860   67.9420 C   0  0  0  0  0  0  0  0  0  0  0  0
    2.0380   68.2010   67.3470 C   0  0  0  0  0  0  0  0  0  0  0  0
    2.0240   68.7380   66.0560 C   0  0  0  0  0  0  0  0  0  0  0  0
    1.0760   68.3280   63.1170 C   0  0  0  0  0  0  0  0  0  0  0  0
    0.7750   69.3240   64.0910 O   0  0  0  0  0  0  0  0  0  0  0  0
   -1.5140   68.4400   65.1830 O   0  0  0  0  0  0  0  0  0  0  0  0
   -2.7150   68.7920   65.8570 C   0  0  0  0  0  0  0  0  0  0  0  0
    3.1230   69.2350   65.4020 O   0  0  0  0  0  0  0  0  0  0  0  0
    4.2910   69.4680   66.1780 C   0  0  0  0  0  0  0  0  0  0  0  0
    2.5710   62.4080   73.0740 O   0  0  0  0  0  0  0  0  0  0  0  0
    2.9300   61.1740   72.5740 C   0  0  0  0  0  0  0  0  0  0  0  0
    4.2750   60.9350   72.2310 C   0  0  0  0  0  0  0  0  0  0  0  0
    4.6020   59.7170   71.6280 C   0  0  0  0  0  0  0  0  0  0  0  0
    3.6320   58.7290   71.4310 C   0  0  0  0  0  0  0  0  0  0  0  0
    2.3080   58.9690   71.7960 C   0  0  0  0  0  0  0  0  0  0  0  0
    1.9510   60.1970   72.3530 C   0  0  0  0  0  0  0  0  0  0  0  0
    0.2940   60.4690   72.7520 Cl  0  0  0  0  0  0  0  0  0  0  0  0
    5.2380   61.9580   72.2810 N   0  0  0  0  0  0  0  0  0  0  0  0
    2.4381   65.1108   69.3192 H   0  0  0  0  0  0  0  0  0  0  0  0
    3.6131   63.4309   70.7360 H   0  0  0  0  0  0  0  0  0  0  0  0
    0.2967   63.4538   73.5054 H   0  0  0  0  0  0  0  0  0  0  0  0
   -0.8823   65.1245   72.0893 H   0  0  0  0  0  0  0  0  0  0  0  0
   -0.5104   65.7573   68.9092 H   0  0  0  0  0  0  0  0  0  0  0  0
   -0.7719   66.7738   70.3640 H   0  0  0  0  0  0  0  0  0  0  0  0
    1.7113   67.5512   69.8753 H   0  0  0  0  0  0  0  0  0  0  0  0
   -1.2673   67.4522   67.7114 H   0  0  0  0  0  0  0  0  0  0  0  0
    2.9827   68.1810   67.9102 H   0  0  0  0  0  0  0  0  0  0  0  0
    1.3585   67.3933   63.6236 H   0  0  0  0  0  0  0  0  0  0  0  0
    0.1912   68.1512   62.4879 H   0  0  0  0  0  0  0  0  0  0  0  0
    1.9107   68.6708   62.4879 H   0  0  0  0  0  0  0  0  0  0  0  0
   -2.5529   68.7445   66.9440 H   0  0  0  0  0  0  0  0  0  0  0  0
   -3.0081   69.8138   65.5743 H   0  0  0  0  0  0  0  0  0  0  0  0
   -3.5134   68.0901   65.5743 H   0  0  0  0  0  0  0  0  0  0  0  0
    4.0371   69.4173   67.2471 H   0  0  0  0  0  0  0  0  0  0  0  0
    5.0456   68.7027   65.9437 H   0  0  0  0  0  0  0  0  0  0  0  0
    4.6942   70.4643   65.9437 H   0  0  0  0  0  0  0  0  0  0  0  0
    5.6369   59.5330   71.3039 H   0  0  0  0  0  0  0  0  0  0  0  0
    3.9137   57.7624   70.9880 H   0  0  0  0  0  0  0  0  0  0  0  0
    1.5456   58.1906   71.6449 H   0  0  0  0  0  0  0  0  0  0  0  0
    6.2155   61.7581   72.0252 H   0  0  0  0  0  0  0  0  0  0  0  0
    4.9660   62.9074   72.5734 H   0  0  0  0  0  0  0  0  0  0  0  0
  2  1  2  0
  3  2  1  0
  4  3  2  0
  5  4  1  0
  6  5  2  0
  6  1  1  0
  7  1  1  0
  8  7  1  0
 10  9  2  0
 11 10  1  0
 12 11  2  0
 12  8  1  0
 13 12  1  0
 14 13  2  0
 14  9  1  0
 16 15  1  0
 16  9  1  0
 17 10  1  0
 18 17  1  0
 19 14  1  0
 20 19  1  0
 21  4  1  0
 22 21  1  0
 23 22  2  0
 24 23  1  0
 25 24  2  0
 26 25  1  0
 27 26  2  0
 27 22  1  0
 28 27  1  0
 29 23  1  0
  2 30  1  0
  3 31  1  0
  5 32  1  0
  6 33  1  0
  7 34  1  0
  7 35  1  0
  8 36  1  0
 11 37  1  0
 13 38  1  0
 15 39  1  0
 15 40  1  0
 15 41  1  0
 18 42  1  0
 18 43  1  0
 18 44  1  0
 20 45  1  0
 20 46  1  0
 20 47  1  0
 24 48  1  0
 25 49  1  0
 26 50  1  0
 29 51  1  0
 29 52  1  0
M  END
>  <score>  (2) 
-9.23

$$$$
=
     RDKit          3D

 52 54  0  0  0  0  0  0  0  0999 V2000
    0.8790   64.9720   70.3810 C   0  0  0  0  0  0  0  0  0  0  0  0
    0.3610   63.9070   71.1310 C   0  0  0  0  0  0  0  0  0  0  0  0
    1.2110   62.9400   71.6770 C   0  0  0  0  0  0  0  0  0  0  0  0
    2.5910   63.0250   71.4760 C   0  0  0  0  0  0  0  0  0  0  0  0
    3.1110   64.0770   70.7200 C   0  0  0  0  0  0  0  0  0  0  0  0
    2.2630   65.0440   70.1760 C   0  0  0  0  0  0  0  0  0  0  0  0
   -0.0370   66.0100   69.7740 C   0  0  0  0  0  0  0  0  0  0  0  0
    0.7560   67.1520   69.3390 N   0  0  0  0  0  0  0  0  0  0  0  0
    0.5420   68.7170   65.4410 C   0  0  0  0  0  0  0  0  0  0  0  0
   -0.6450   68.3160   66.0720 C   0  0  0  0  0  0  0  0  0  0  0  0
   -0.5790   67.7780   67.3610 C   0  0  0  0  0  0  0  0  0  0  0  0
    0.6460   67.6270   68.0270 C   0  0  0  0  0  0  0  0  0  0  0  0
    1.8080   68.1050   67.3970 C   0  0  0  0  0  0  0  0  0  0  0  0
    1.7720   68.6450   66.1070 C   0  0  0  0  0  0  0  0  0  0  0  0
    0.8020   68.2930   63.2030 C   0  0  0  0  0  0  0  0  0  0  0  0
    0.4820   69.2780   64.1840 O   0  0  0  0  0  0  0  0  0  0  0  0
   -1.8000   68.4680   65.3450 O   0  0  0  0  0  0  0  0  0  0  0  0
   -3.0270   68.3980   66.0580 C   0  0  0  0  0  0  0  0  0  0  0  0
    2.8660   69.1070   65.4200 O   0  0  0  0  0  0  0  0  0  0  0  0
    4.0100   69.4660   66.1840 C   0  0  0  0  0  0  0  0  0  0  0  0
    3.5310   62.1360   71.9560 O   0  0  0  0  0  0  0  0  0  0  0  0
    3.3030   60.7880   71.7810 C   0  0  0  0  0  0  0  0  0  0  0  0
    2.8640   60.0170   72.8740 C   0  0  0  0  0  0  0  0  0  0  0  0
    2.7390   58.6340   72.7060 C   0  0  0  0  0  0  0  0  0  0  0  0
    2.9770   58.0370   71.4640 C   0  0  0  0  0  0  0  0  0  0  0  0
    3.3890   58.8140   70.3830 C   0  0  0  0  0  0  0  0  0  0  0  0
    3.5680   60.1890   70.5430 C   0  0  0  0  0  0  0  0  0  0  0  0
    4.1190   61.1090   69.1900 Cl  0  0  0  0  0  0  0  0  0  0  0  0
    2.7600   60.5640   74.1640 N   0  0  0  0  0  0  0  0  0  0  0  0
   -0.7246   63.8312   71.2916 H   0  0  0  0  0  0  0  0  0  0  0  0
    0.7922   62.1107   72.2660 H   0  0  0  0  0  0  0  0  0  0  0  0
    4.1959   64.1447   70.5517 H   0  0  0  0  0  0  0  0  0  0  0  0
    2.6848   65.8683   69.5822 H   0  0  0  0  0  0  0  0  0  0  0  0
   -0.5630   65.5768   68.9105 H   0  0  0  0  0  0  0  0  0  0  0  0
   -0.7745   66.3354   70.5224 H   0  0  0  0  0  0  0  0  0  0  0  0
    1.3997   67.6113   69.9990 H   0  0  0  0  0  0  0  0  0  0  0  0
   -1.5070   67.4668   67.8630 H   0  0  0  0  0  0  0  0  0  0  0  0
    2.7683   68.0533   67.9309 H   0  0  0  0  0  0  0  0  0  0  0  0
    1.1046   67.3615   63.7038 H   0  0  0  0  0  0  0  0  0  0  0  0
   -0.0801   68.1015   62.5744 H   0  0  0  0  0  0  0  0  0  0  0  0
    1.6283   68.6565   62.5744 H   0  0  0  0  0  0  0  0  0  0  0  0
   -2.8241   68.4096   67.1391 H   0  0  0  0  0  0  0  0  0  0  0  0
   -3.6546   69.2618   65.7935 H   0  0  0  0  0  0  0  0  0  0  0  0
   -3.5523   67.4684   65.7935 H   0  0  0  0  0  0  0  0  0  0  0  0
    3.7733   69.3917   67.2557 H   0  0  0  0  0  0  0  0  0  0  0  0
    4.8398   68.7851   65.9437 H   0  0  0  0  0  0  0  0  0  0  0  0
    4.3020   70.4990   65.9437 H   0  0  0  0  0  0  0  0  0  0  0  0
    2.4495   58.0074   73.5625 H   0  0  0  0  0  0  0  0  0  0  0  0
    2.8388   56.9528   71.3402 H   0  0  0  0  0  0  0  0  0  0  0  0
    3.5728   58.3445   69.4053 H   0  0  0  0  0  0  0  0  0  0  0  0
    2.4361   59.9785   74.9471 H   0  0  0  0  0  0  0  0  0  0  0  0
    3.0077   61.5505   74.3266 H   0  0  0  0  0  0  0  0  0  0  0  0
  2  1  2  0
  3  2  1  0
  4  3  2  0
  5  4  1  0
  6  5  2  0
  6  1  1  0
  7  1  1  0
  8  7  1  0
 10  9  2  0
 11 10  1  0
 12 11  2  0
 12  8  1  0
 13 12  1  0
 14 13  2  0
 14  9  1  0
 16 15  1  0
 16  9  1  0
 17 10  1  0
 18 17  1  0
 19 14  1  0
 20 19  1  0
 21  4  1  0
 22 21  1  0
 23 22  2  0
 24 23  1  0
 25 24  2  0
 26 25  1  0
 27 26  2  0
 27 22  1  0
 28 27  1  0
 29 23  1  0
  2 30  1  0
  3 31  1  0
  5 32  1  0
  6 33  1  0
  7 34  1  0
  7 35  1  0
  8 36  1  0
 11 37  1  0
 13 38  1  0
 15 39  1  0
 15 40  1  0
 15 41  1  0
 18 42  1  0
 18 43  1  0
 18 44  1  0
 20 45  1  0
 20 46  1  0
 20 47  1  0
 24 48  1  0
 25 49  1  0
 26 50  1  0
 29 51  1  0
 29 52  1  0
M  END
>  <score>  (3) 
-9.228

$$$$
=
     RDKit          3D

 52 54  0  0  0  0  0  0  0  0999 V2000
    0.8920   64.8870   70.5000 C   0  0  0  0  0  0  0  0  0  0  0  0
    0.3410   63.8830   71.3070 C   0  0  0  0  0  0  0  0  0  0  0  0
    1.1550   62.8960   71.8730 C   0  0  0  0  0  0  0  0  0  0  0  0
    2.5310   62.9010   71.6360 C   0  0  0  0  0  0  0  0  0  0  0  0
    3.0840   63.8930   70.8230 C   0  0  0  0  0  0  0  0  0  0  0  0
    2.2730   64.8790   70.2580 C   0  0  0  0  0  0  0  0  0  0  0  0
    0.0150   65.9440   69.8700 C   0  0  0  0  0  0  0  0  0  0  0  0
    0.8240   67.1160   69.5610 N   0  0  0  0  0  0  0  0  0  0  0  0
    0.6360   68.6450   65.6480 C   0  0  0  0  0  0  0  0  0  0  0  0
    1.8680   68.6570   66.3170 C   0  0  0  0  0  0  0  0  0  0  0  0
    1.9340   68.1660   67.6250 C   0  0  0  0  0  0  0  0  0  0  0  0
    0.7950   67.6730   68.2780 C   0  0  0  0  0  0  0  0  0  0  0  0
   -0.4090   67.6090   67.5550 C   0  0  0  0  0  0  0  0  0  0  0  0
   -0.5050   68.0940   66.2470 C   0  0  0  0  0  0  0  0  0  0  0  0
    1.1380   68.1260   63.4720 C   0  0  0  0  0  0  0  0  0  0  0  0
    0.5680   69.0970   64.3480 O   0  0  0  0  0  0  0  0  0  0  0  0
    2.9310   69.1810   65.6230 O   0  0  0  0  0  0  0  0  0  0  0  0
    4.0740   69.5590   66.3780 C   0  0  0  0  0  0  0  0  0  0  0  0
   -1.6490   68.0890   65.4900 O   0  0  0  0  0  0  0  0  0  0  0  0
   -2.7630   68.8150   65.9910 C   0  0  0  0  0  0  0  0  0  0  0  0
    3.4370   61.9860   72.1310 O   0  0  0  0  0  0  0  0  0  0  0  0
    3.1800   60.6450   71.9400 C   0  0  0  0  0  0  0  0  0  0  0  0
    2.6090   59.8980   72.9880 C   0  0  0  0  0  0  0  0  0  0  0  0
    2.4530   58.5190   72.8140 C   0  0  0  0  0  0  0  0  0  0  0  0
    2.7900   57.9040   71.6050 C   0  0  0  0  0  0  0  0  0  0  0  0
    3.3330   58.6590   70.5660 C   0  0  0  0  0  0  0  0  0  0  0  0
    3.5450   60.0270   70.7370 C   0  0  0  0  0  0  0  0  0  0  0  0
    4.2580   60.9180   69.4410 Cl  0  0  0  0  0  0  0  0  0  0  0  0
    2.3980   60.4590   74.2600 N   0  0  0  0  0  0  0  0  0  0  0  0
   -0.7423   63.8707   71.4974 H   0  0  0  0  0  0  0  0  0  0  0  0
    0.7100   62.1143   72.5062 H   0  0  0  0  0  0  0  0  0  0  0  0
    4.1663   63.8974   70.6265 H   0  0  0  0  0  0  0  0  0  0  0  0
    2.7203   65.6545   69.6189 H   0  0  0  0  0  0  0  0  0  0  0  0
   -0.4296   65.5494   68.9445 H   0  0  0  0  0  0  0  0  0  0  0  0
   -0.7877   66.2227   70.5686 H   0  0  0  0  0  0  0  0  0  0  0  0
    1.4191   67.5356   70.2895 H   0  0  0  0  0  0  0  0  0  0  0  0
    2.8993   68.1666   68.1524 H   0  0  0  0  0  0  0  0  0  0  0  0
   -1.2972   67.1666   68.0298 H   0  0  0  0  0  0  0  0  0  0  0  0
    1.6069   67.3272   64.0654 H   0  0  0  0  0  0  0  0  0  0  0  0
    0.3488   67.6963   62.8376 H   0  0  0  0  0  0  0  0  0  0  0  0
    1.8979   68.6057   62.8376 H   0  0  0  0  0  0  0  0  0  0  0  0
    3.8458   69.4835   67.4514 H   0  0  0  0  0  0  0  0  0  0  0  0
    4.9125   68.8903   66.1335 H   0  0  0  0  0  0  0  0  0  0  0  0
    4.3485   70.5958   66.1335 H   0  0  0  0  0  0  0  0  0  0  0  0
   -2.7441   68.8027   67.0908 H   0  0  0  0  0  0  0  0  0  0  0  0
   -2.7133   69.8546   65.6350 H   0  0  0  0  0  0  0  0  0  0  0  0
   -3.6940   68.3497   65.6350 H   0  0  0  0  0  0  0  0  0  0  0  0
    2.0593   57.9095   73.6408 H   0  0  0  0  0  0  0  0  0  0  0  0
    2.6268   56.8242   71.4731 H   0  0  0  0  0  0  0  0  0  0  0  0
    3.5939   58.1763   69.6126 H   0  0  0  0  0  0  0  0  0  0  0  0
    1.9785   59.8913   75.0101 H   0  0  0  0  0  0  0  0  0  0  0  0
    2.6630   61.4376   74.4417 H   0  0  0  0  0  0  0  0  0  0  0  0
  2  1  2  0
  3  2  1  0
  4  3  2  0
  5  4  1  0
  6  5  2  0
  6  1  1  0
  7  1  1  0
  8  7  1  0
 10  9  2  0
 11 10  1  0
 12 11  2  0
 12  8  1  0
 13 12  1  0
 14 13  2  0
 14  9  1  0
 16 15  1  0
 16  9  1  0
 17 10  1  0
 18 17  1  0
 19 14  1  0
 20 19  1  0
 21  4  1  0
 22 21  1  0
 23 22  2  0
 24 23  1  0
 25 24  2  0
 26 25  1  0
 27 26  2  0
 27 22  1  0
 28 27  1  0
 29 23  1  0
  2 30  1  0
  3 31  1  0
  5 32  1  0
  6 33  1  0
  7 34  1  0
  7 35  1  0
  8 36  1  0
 11 37  1  0
 13 38  1  0
 15 39  1  0
 15 40  1  0
 15 41  1  0
 18 42  1  0
 18 43  1  0
 18 44  1  0
 20 45  1  0
 20 46  1  0
 20 47  1  0
 24 48  1  0
 25 49  1  0
 26 50  1  0
 29 51  1  0
 29 52  1  0
M  END
>  <score>  (4) 
-9.138

$$$$
=
     RDKit          3D

 52 54  0  0  0  0  0  0  0  0999 V2000
    0.2620   66.1630   69.5720 C   0  0  0  0  0  0  0  0  0  0  0  0
   -0.5150   66.7150   68.5440 C   0  0  0  0  0  0  0  0  0  0  0  0
   -0.1040   67.8780   67.8850 C   0  0  0  0  0  0  0  0  0  0  0  0
    1.0900   68.5060   68.2490 C   0  0  0  0  0  0  0  0  0  0  0  0
    1.8620   67.9670   69.2800 C   0  0  0  0  0  0  0  0  0  0  0  0
    1.4530   66.8050   69.9370 C   0  0  0  0  0  0  0  0  0  0  0  0
   -0.1870   64.9180   70.3000 C   0  0  0  0  0  0  0  0  0  0  0  0
    0.6740   63.8050   69.9200 N   0  0  0  0  0  0  0  0  0  0  0  0
    2.9080   61.6300   72.7430 C   0  0  0  0  0  0  0  0  0  0  0  0
    1.9590   62.5540   73.2030 C   0  0  0  0  0  0  0  0  0  0  0  0
    1.2250   63.2940   72.2700 C   0  0  0  0  0  0  0  0  0  0  0  0
    1.4260   63.1340   70.8910 C   0  0  0  0  0  0  0  0  0  0  0  0
    2.3330   62.1490   70.4620 C   0  0  0  0  0  0  0  0  0  0  0  0
    3.0820   61.3960   71.3730 C   0  0  0  0  0  0  0  0  0  0  0  0
    2.8980   59.6730   73.9360 C   0  0  0  0  0  0  0  0  0  0  0  0
    3.6120   60.8740   73.6550 O   0  0  0  0  0  0  0  0  0  0  0  0
    1.8400   62.6750   74.5650 O   0  0  0  0  0  0  0  0  0  0  0  0
    1.1130   63.7940   75.0560 C   0  0  0  0  0  0  0  0  0  0  0  0
    4.0020   60.4380   71.0280 O   0  0  0  0  0  0  0  0  0  0  0  0
    3.8000   59.7560   69.7990 C   0  0  0  0  0  0  0  0  0  0  0  0
    1.6010   69.6550   67.6810 O   0  0  0  0  0  0  0  0  0  0  0  0
    2.9380   69.6770   67.3460 C   0  0  0  0  0  0  0  0  0  0  0  0
    3.8640   70.2350   68.2490 C   0  0  0  0  0  0  0  0  0  0  0  0
    5.2000   70.3450   67.8480 C   0  0  0  0  0  0  0  0  0  0  0  0
    5.6220   69.8520   66.6100 C   0  0  0  0  0  0  0  0  0  0  0  0
    4.7000   69.2800   65.7350 C   0  0  0  0  0  0  0  0  0  0  0  0
    3.3540   69.2070   66.0940 C   0  0  0  0  0  0  0  0  0  0  0  0
    2.2370   68.5300   64.9650 Cl  0  0  0  0  0  0  0  0  0  0  0  0
    3.4460   70.8690   69.4310 N   0  0  0  0  0  0  0  0  0  0  0  0
   -1.4576   66.2284   68.2527 H   0  0  0  0  0  0  0  0  0  0  0  0
   -0.7220   68.2993   67.0784 H   0  0  0  0  0  0  0  0  0  0  0  0
    2.7989   68.4613   69.5766 H   0  0  0  0  0  0  0  0  0  0  0  0
    2.0704   66.3902   70.7474 H   0  0  0  0  0  0  0  0  0  0  0  0
   -0.1193   65.0818   71.3856 H   0  0  0  0  0  0  0  0  0  0  0  0
   -1.2288   64.6881   70.0320 H   0  0  0  0  0  0  0  0  0  0  0  0
    0.7291   63.5116   68.9342 H   0  0  0  0  0  0  0  0  0  0  0  0
    0.4749   64.0161   72.6250 H   0  0  0  0  0  0  0  0  0  0  0  0
    2.4567   61.9660   69.3844 H   0  0  0  0  0  0  0  0  0  0  0  0
    2.8188   59.5398   75.0250 H   0  0  0  0  0  0  0  0  0  0  0  0
    1.8900   59.7351   73.4999 H   0  0  0  0  0  0  0  0  0  0  0  0
    3.4341   58.8172   73.4999 H   0  0  0  0  0  0  0  0  0  0  0  0
    1.1206   63.7822   76.1559 H   0  0  0  0  0  0  0  0  0  0  0  0
    1.5811   64.7220   74.6960 H   0  0  0  0  0  0  0  0  0  0  0  0
    0.0748   63.7434   74.6960 H   0  0  0  0  0  0  0  0  0  0  0  0
    3.4929   58.7193   70.0011 H   0  0  0  0  0  0  0  0  0  0  0  0
    3.0141   60.2653   69.2219 H   0  0  0  0  0  0  0  0  0  0  0  0
    4.7365   59.7552   69.2219 H   0  0  0  0  0  0  0  0  0  0  0  0
    5.9288   70.8264   68.5167 H   0  0  0  0  0  0  0  0  0  0  0  0
    6.6828   69.9155   66.3260 H   0  0  0  0  0  0  0  0  0  0  0  0
    5.0332   68.8869   64.7632 H   0  0  0  0  0  0  0  0  0  0  0  0
    4.1431   71.2691   70.0750 H   0  0  0  0  0  0  0  0  0  0  0  0
    2.4424   70.9337   69.6535 H   0  0  0  0  0  0  0  0  0  0  0  0
  2  1  2  0
  3  2  1  0
  4  3  2  0
  5  4  1  0
  6  5  2  0
  6  1  1  0
  7  1  1  0
  8  7  1  0
 10  9  2  0
 11 10  1  0
 12 11  2  0
 12  8  1  0
 13 12  1  0
 14 13  2  0
 14  9  1  0
 16 15  1  0
 16  9  1  0
 17 10  1  0
 18 17  1  0
 19 14  1  0
 20 19  1  0
 21  4  1  0
 22 21  1  0
 23 22  2  0
 24 23  1  0
 25 24  2  0
 26 25  1  0
 27 26  2  0
 27 22  1  0
 28 27  1  0
 29 23  1  0
  2 30  1  0
  3 31  1  0
  5 32  1  0
  6 33  1  0
  7 34  1  0
  7 35  1  0
  8 36  1  0
 11 37  1  0
 13 38  1  0
 15 39  1  0
 15 40  1  0
 15 41  1  0
 18 42  1  0
 18 43  1  0
 18 44  1  0
 20 45  1  0
 20 46  1  0
 20 47  1  0
 24 48  1  0
 25 49  1  0
 26 50  1  0
 29 51  1  0
 29 52  1  0
M  END
>  <score>  (5) 
-9.066

$$$$
=
     RDKit          3D

 52 54  0  0  0  0  0  0  0  0999 V2000
    0.2680   65.6480   69.8810 C   0  0  0  0  0  0  0  0  0  0  0  0
    1.4720   66.3360   70.0900 C   0  0  0  0  0  0  0  0  0  0  0  0
    1.7700   67.4900   69.3560 C   0  0  0  0  0  0  0  0  0  0  0  0
    0.8680   67.9670   68.4030 C   0  0  0  0  0  0  0  0  0  0  0  0
   -0.3270   67.2780   68.1830 C   0  0  0  0  0  0  0  0  0  0  0  0
   -0.6260   66.1280   68.9150 C   0  0  0  0  0  0  0  0  0  0  0  0
   -0.0500   64.3910   70.6570 C   0  0  0  0  0  0  0  0  0  0  0  0
    0.6510   64.4260   71.9330 N   0  0  0  0  0  0  0  0  0  0  0  0
    3.5080   61.4310   72.6790 C   0  0  0  0  0  0  0  0  0  0  0  0
    2.5750   61.7360   73.6810 C   0  0  0  0  0  0  0  0  0  0  0  0
    1.6330   62.7430   73.4460 C   0  0  0  0  0  0  0  0  0  0  0  0
    1.6100   63.4540   72.2370 C   0  0  0  0  0  0  0  0  0  0  0  0
    2.5120   63.0760   71.2270 C   0  0  0  0  0  0  0  0  0  0  0  0
    3.4660   62.0740   71.4350 C   0  0  0  0  0  0  0  0  0  0  0  0
    3.8670   59.1780   72.4520 C   0  0  0  0  0  0  0  0  0  0  0  0
    4.4180   60.4180   72.8890 O   0  0  0  0  0  0  0  0  0  0  0  0
    2.6780   61.0180   74.8460 O   0  0  0  0  0  0  0  0  0  0  0  0
    1.5730   61.0660   75.7370 C   0  0  0  0  0  0  0  0  0  0  0  0
    4.3930   61.6700   70.5070 O   0  0  0  0  0  0  0  0  0  0  0  0
    3.9590   61.5640   69.1590 C   0  0  0  0  0  0  0  0  0  0  0  0
    1.0450   69.0860   67.6160 O   0  0  0  0  0  0  0  0  0  0  0  0
    2.2140   69.1960   66.8930 C   0  0  0  0  0  0  0  0  0  0  0  0
    2.2680   68.6720   65.5870 C   0  0  0  0  0  0  0  0  0  0  0  0
    3.4910   68.6980   64.9100 C   0  0  0  0  0  0  0  0  0  0  0  0
    4.6190   69.2920   65.4840 C   0  0  0  0  0  0  0  0  0  0  0  0
    4.5470   69.8280   66.7690 C   0  0  0  0  0  0  0  0  0  0  0  0
    3.3490   69.7670   67.4820 C   0  0  0  0  0  0  0  0  0  0  0  0
    3.3140   70.4060   69.0860 Cl  0  0  0  0  0  0  0  0  0  0  0  0
    1.1970   67.9420   65.0450 N   0  0  0  0  0  0  0  0  0  0  0  0
    2.1888   65.9654   70.8376 H   0  0  0  0  0  0  0  0  0  0  0  0
    2.7168   68.0222   69.5304 H   0  0  0  0  0  0  0  0  0  0  0  0
   -1.0375   67.6445   67.4274 H   0  0  0  0  0  0  0  0  0  0  0  0
   -1.5705   65.5946   68.7322 H   0  0  0  0  0  0  0  0  0  0  0  0
   -1.1340   64.3323   70.8342 H   0  0  0  0  0  0  0  0  0  0  0  0
    0.2723   63.5102   70.0822 H   0  0  0  0  0  0  0  0  0  0  0  0
    0.4399   65.1692   72.6142 H   0  0  0  0  0  0  0  0  0  0  0  0
    0.8948   62.9824   74.2256 H   0  0  0  0  0  0  0  0  0  0  0  0
    2.4666   63.5799   70.2503 H   0  0  0  0  0  0  0  0  0  0  0  0
    3.5962   58.5685   73.3268 H   0  0  0  0  0  0  0  0  0  0  0  0
    2.9691   59.3690   71.8460 H   0  0  0  0  0  0  0  0  0  0  0  0
    4.6106   58.6396   71.8460 H   0  0  0  0  0  0  0  0  0  0  0  0
    1.9377   61.0502   76.7747 H   0  0  0  0  0  0  0  0  0  0  0  0
    1.0017   61.9898   75.5632 H   0  0  0  0  0  0  0  0  0  0  0  0
    0.9238   60.1952   75.5632 H   0  0  0  0  0  0  0  0  0  0  0  0
    2.8906   61.3031   69.1372 H   0  0  0  0  0  0  0  0  0  0  0  0
    4.1120   62.5259   68.6478 H   0  0  0  0  0  0  0  0  0  0  0  0
    4.5382   60.7809   68.6478 H   0  0  0  0  0  0  0  0  0  0  0  0
    3.5669   68.2443   63.9108 H   0  0  0  0  0  0  0  0  0  0  0  0
    5.5634   69.3364   64.9217 H   0  0  0  0  0  0  0  0  0  0  0  0
    5.4332   70.2983   67.2201 H   0  0  0  0  0  0  0  0  0  0  0  0
    1.2606   67.5689   64.0871 H   0  0  0  0  0  0  0  0  0  0  0  0
    0.3482   67.7799   65.6056 H   0  0  0  0  0  0  0  0  0  0  0  0
  2  1  2  0
  3  2  1  0
  4  3  2  0
  5  4  1  0
  6  5  2  0
  6  1  1  0
  7  1  1  0
  8  7  1  0
 10  9  2  0
 11 10  1  0
 12 11  2  0
 12  8  1  0
 13 12  1  0
 14 13  2  0
 14  9  1  0
 16 15  1  0
 16  9  1  0
 17 10  1  0
 18 17  1  0
 19 14  1  0
 20 19  1  0
 21  4  1  0
 22 21  1  0
 23 22  2  0
 24 23  1  0
 25 24  2  0
 26 25  1  0
 27 26  2  0
 27 22  1  0
 28 27  1  0
 29 23  1  0
  2 30  1  0
  3 31  1  0
  5 32  1  0
  6 33  1  0
  7 34  1  0
  7 35  1  0
  8 36  1  0
 11 37  1  0
 13 38  1  0
 15 39  1  0
 15 40  1  0
 15 41  1  0
 18 42  1  0
 18 43  1  0
 18 44  1  0
 20 45  1  0
 20 46  1  0
 20 47  1  0
 24 48  1  0
 25 49  1  0
 26 50  1  0
 29 51  1  0
 29 52  1  0
M  END
>  <score>  (6) 
-8.611

$$$$
=
     RDKit          3D

 52 54  0  0  0  0  0  0  0  0999 V2000
    0.6500   65.6550   70.2820 C   0  0  0  0  0  0  0  0  0  0  0  0
    1.9180   65.2060   69.8860 C   0  0  0  0  0  0  0  0  0  0  0  0
    2.5830   64.2150   70.6150 C   0  0  0  0  0  0  0  0  0  0  0  0
    1.9880   63.6620   71.7510 C   0  0  0  0  0  0  0  0  0  0  0  0
    0.7310   64.1140   72.1570 C   0  0  0  0  0  0  0  0  0  0  0  0
    0.0650   65.1030   71.4300 C   0  0  0  0  0  0  0  0  0  0  0  0
   -0.0640   66.7400   69.5100 C   0  0  0  0  0  0  0  0  0  0  0  0
    0.3070   66.6500   68.1040 N   0  0  0  0  0  0  0  0  0  0  0  0
    3.1750   69.2170   66.4100 C   0  0  0  0  0  0  0  0  0  0  0  0
    2.6930   69.5020   67.6960 C   0  0  0  0  0  0  0  0  0  0  0  0
    1.7260   68.6620   68.2580 C   0  0  0  0  0  0  0  0  0  0  0  0
    1.2280   67.5520   67.5600 C   0  0  0  0  0  0  0  0  0  0  0  0
    1.7840   67.2540   66.3030 C   0  0  0  0  0  0  0  0  0  0  0  0
    2.7500   68.0770   65.7160 C   0  0  0  0  0  0  0  0  0  0  0  0
    5.4390   69.5480   66.2540 C   0  0  0  0  0  0  0  0  0  0  0  0
    4.1520   70.0210   65.8610 O   0  0  0  0  0  0  0  0  0  0  0  0
    3.2070   70.6210   68.3030 O   0  0  0  0  0  0  0  0  0  0  0  0
    3.9740   70.4230   69.4830 C   0  0  0  0  0  0  0  0  0  0  0  0
    3.3180   67.8640   64.4850 O   0  0  0  0  0  0  0  0  0  0  0  0
    2.5140   68.1260   63.3440 C   0  0  0  0  0  0  0  0  0  0  0  0
    2.5390   62.6840   72.5540 O   0  0  0  0  0  0  0  0  0  0  0  0
    2.8690   61.4770   71.9780 C   0  0  0  0  0  0  0  0  0  0  0  0
    1.9490   60.4120   72.0360 C   0  0  0  0  0  0  0  0  0  0  0  0
    2.3410   59.1650   71.5400 C   0  0  0  0  0  0  0  0  0  0  0  0
    3.5910   58.9920   70.9370 C   0  0  0  0  0  0  0  0  0  0  0  0
    4.4850   60.0600   70.8650 C   0  0  0  0  0  0  0  0  0  0  0  0
    4.1330   61.2990   71.4000 C   0  0  0  0  0  0  0  0  0  0  0  0
    5.2840   62.5840   71.3270 Cl  0  0  0  0  0  0  0  0  0  0  0  0
    0.7500   60.5170   72.7620 N   0  0  0  0  0  0  0  0  0  0  0  0
    2.3943   65.6375   68.9933 H   0  0  0  0  0  0  0  0  0  0  0  0
    3.5767   63.8704   70.2930 H   0  0  0  0  0  0  0  0  0  0  0  0
    0.2618   63.6880   73.0561 H   0  0  0  0  0  0  0  0  0  0  0  0
   -0.9248   65.4510   71.7603 H   0  0  0  0  0  0  0  0  0  0  0  0
   -1.1514   66.6100   69.6127 H   0  0  0  0  0  0  0  0  0  0  0  0
    0.2228   67.7254   69.9058 H   0  0  0  0  0  0  0  0  0  0  0  0
   -0.1099   65.9202   67.5087 H   0  0  0  0  0  0  0  0  0  0  0  0
    1.3482   68.8764   69.2686 H   0  0  0  0  0  0  0  0  0  0  0  0
    1.4509   66.3519   65.7689 H   0  0  0  0  0  0  0  0  0  0  0  0
    5.5016   69.5250   67.3520 H   0  0  0  0  0  0  0  0  0  0  0  0
    5.5941   68.5341   65.8566 H   0  0  0  0  0  0  0  0  0  0  0  0
    6.2138   70.2201   65.8566 H   0  0  0  0  0  0  0  0  0  0  0  0
    3.3381   70.5871   70.3655 H   0  0  0  0  0  0  0  0  0  0  0  0
    4.3643   69.3947   69.4984 H   0  0  0  0  0  0  0  0  0  0  0  0
    4.8132   71.1339   69.4984 H   0  0  0  0  0  0  0  0  0  0  0  0
    1.5142   68.4518   63.6669 H   0  0  0  0  0  0  0  0  0  0  0  0
    2.9808   68.9185   62.7407 H   0  0  0  0  0  0  0  0  0  0  0  0
    2.4243   67.2106   62.7407 H   0  0  0  0  0  0  0  0  0  0  0  0
    1.6567   58.3080   71.6252 H   0  0  0  0  0  0  0  0  0  0  0  0
    3.8691   58.0131   70.5193 H   0  0  0  0  0  0  0  0  0  0  0  0
    5.4665   59.9254   70.3869 H   0  0  0  0  0  0  0  0  0  0  0  0
    0.0933   59.7240   72.7891 H   0  0  0  0  0  0  0  0  0  0  0  0
    0.5281   61.3869   73.2669 H   0  0  0  0  0  0  0  0  0  0  0  0
  2  1  2  0
  3  2  1  0
  4  3  2  0
  5  4  1  0
  6  5  2  0
  6  1  1  0
  7  1  1  0
  8  7  1  0
 10  9  2  0
 11 10  1  0
 12 11  2  0
 12  8  1  0
 13 12  1  0
 14 13  2  0
 14  9  1  0
 16 15  1  0
 16  9  1  0
 17 10  1  0
 18 17  1  0
 19 14  1  0
 20 19  1  0
 21  4  1  0
 22 21  1  0
 23 22  2  0
 24 23  1  0
 25 24  2  0
 26 25  1  0
 27 26  2  0
 27 22  1  0
 28 27  1  0
 29 23  1  0
  2 30  1  0
  3 31  1  0
  5 32  1  0
  6 33  1  0
  7 34  1  0
  7 35  1  0
  8 36  1  0
 11 37  1  0
 13 38  1  0
 15 39  1  0
 15 40  1  0
 15 41  1  0
 18 42  1  0
 18 43  1  0
 18 44  1  0
 20 45  1  0
 20 46  1  0
 20 47  1  0
 24 48  1  0
 25 49  1  0
 26 50  1  0
 29 51  1  0
 29 52  1  0
M  END
>  <score>  (7) 
-8.544

$$$$
=
     RDKit          3D

 52 54  0  0  0  0  0  0  0  0999 V2000
    1.3340   65.6580   70.0610 C   0  0  0  0  0  0  0  0  0  0  0  0
    2.5510   64.9720   70.1730 C   0  0  0  0  0  0  0  0  0  0  0  0
    2.5830   63.6460   70.6170 C   0  0  0  0  0  0  0  0  0  0  0  0
    1.3970   62.9910   70.9560 C   0  0  0  0  0  0  0  0  0  0  0  0
    0.1830   63.6740   70.8570 C   0  0  0  0  0  0  0  0  0  0  0  0
    0.1500   64.9970   70.4130 C   0  0  0  0  0  0  0  0  0  0  0  0
    1.2960   67.0980   69.6010 C   0  0  0  0  0  0  0  0  0  0  0  0
    0.5710   67.1770   68.3400 N   0  0  0  0  0  0  0  0  0  0  0  0
    2.3400   68.7650   64.8700 C   0  0  0  0  0  0  0  0  0  0  0  0
    3.0080   68.9130   66.0950 C   0  0  0  0  0  0  0  0  0  0  0  0
    2.4170   68.4030   67.2560 C   0  0  0  0  0  0  0  0  0  0  0  0
    1.1720   67.7570   67.2170 C   0  0  0  0  0  0  0  0  0  0  0  0
    0.5630   67.5620   65.9650 C   0  0  0  0  0  0  0  0  0  0  0  0
    1.1310   68.0630   64.7890 C   0  0  0  0  0  0  0  0  0  0  0  0
    3.7290   68.2090   63.1330 C   0  0  0  0  0  0  0  0  0  0  0  0
    2.9310   69.2360   63.7180 O   0  0  0  0  0  0  0  0  0  0  0  0
    4.2070   69.5810   66.0560 O   0  0  0  0  0  0  0  0  0  0  0  0
    4.7670   69.9800   67.3000 C   0  0  0  0  0  0  0  0  0  0  0  0
    0.5830   67.9340   63.5380 O   0  0  0  0  0  0  0  0  0  0  0  0
   -0.4170   68.8720   63.1660 C   0  0  0  0  0  0  0  0  0  0  0  0
    1.2950   61.6910   71.4080 O   0  0  0  0  0  0  0  0  0  0  0  0
    2.4050   61.1140   71.9870 C   0  0  0  0  0  0  0  0  0  0  0  0
    2.6210   61.2720   73.3690 C   0  0  0  0  0  0  0  0  0  0  0  0
    3.8040   60.7710   73.9200 C   0  0  0  0  0  0  0  0  0  0  0  0
    4.7220   60.0670   73.1340 C   0  0  0  0  0  0  0  0  0  0  0  0
    4.4860   59.8960   71.7700 C   0  0  0  0  0  0  0  0  0  0  0  0
    3.3360   60.4330   71.1910 C   0  0  0  0  0  0  0  0  0  0  0  0
    3.1010   60.2360   69.4920 Cl  0  0  0  0  0  0  0  0  0  0  0  0
    1.7940   62.0970   74.1520 N   0  0  0  0  0  0  0  0  0  0  0  0
    3.4897   65.4811   69.9093 H   0  0  0  0  0  0  0  0  0  0  0  0
    3.5444   63.1179   70.6994 H   0  0  0  0  0  0  0  0  0  0  0  0
   -0.7535   63.1661   71.1307 H   0  0  0  0  0  0  0  0  0  0  0  0
   -0.8125   65.5243   70.3390 H   0  0  0  0  0  0  0  0  0  0  0  0
    0.7869   67.7130   70.3577 H   0  0  0  0  0  0  0  0  0  0  0  0
    2.3219   67.4698   69.4623 H   0  0  0  0  0  0  0  0  0  0  0  0
   -0.3872   66.8048   68.2746 H   0  0  0  0  0  0  0  0  0  0  0  0
    2.9386   68.5106   68.2185 H   0  0  0  0  0  0  0  0  0  0  0  0
   -0.3823   67.0023   65.9089 H   0  0  0  0  0  0  0  0  0  0  0  0
    4.1952   67.6090   63.9284 H   0  0  0  0  0  0  0  0  0  0  0  0
    3.0944   67.5618   62.5097 H   0  0  0  0  0  0  0  0  0  0  0  0
    4.5129   68.6640   62.5097 H   0  0  0  0  0  0  0  0  0  0  0  0
    4.1722   69.5562   68.1226 H   0  0  0  0  0  0  0  0  0  0  0  0
    5.8022   69.6148   67.3701 H   0  0  0  0  0  0  0  0  0  0  0  0
    4.7599   71.0777   67.3701 H   0  0  0  0  0  0  0  0  0  0  0  0
   -0.8732   69.2999   64.0709 H   0  0  0  0  0  0  0  0  0  0  0  0
    0.0384   69.6763   62.5695 H   0  0  0  0  0  0  0  0  0  0  0  0
   -1.1905   68.3661   62.5695 H   0  0  0  0  0  0  0  0  0  0  0  0
    4.0160   60.9328   74.9872 H   0  0  0  0  0  0  0  0  0  0  0  0
    5.6303   59.6481   73.5916 H   0  0  0  0  0  0  0  0  0  0  0  0
    5.2054   59.3387   71.1520 H   0  0  0  0  0  0  0  0  0  0  0  0
    1.9729   62.1961   75.1615 H   0  0  0  0  0  0  0  0  0  0  0  0
    1.0094   62.6022   73.7160 H   0  0  0  0  0  0  0  0  0  0  0  0
  2  1  2  0
  3  2  1  0
  4  3  2  0
  5  4  1  0
  6  5  2  0
  6  1  1  0
  7  1  1  0
  8  7  1  0
 10  9  2  0
 11 10  1  0
 12 11  2  0
 12  8  1  0
 13 12  1  0
 14 13  2  0
 14  9  1  0
 16 15  1  0
 16  9  1  0
 17 10  1  0
 18 17  1  0
 19 14  1  0
 20 19  1  0
 21  4  1  0
 22 21  1  0
 23 22  2  0
 24 23  1  0
 25 24  2  0
 26 25  1  0
 27 26  2  0
 27 22  1  0
 28 27  1  0
 29 23  1  0
  2 30  1  0
  3 31  1  0
  5 32  1  0
  6 33  1  0
  7 34  1  0
  7 35  1  0
  8 36  1  0
 11 37  1  0
 13 38  1  0
 15 39  1  0
 15 40  1  0
 15 41  1  0
 18 42  1  0
 18 43  1  0
 18 44  1  0
 20 45  1  0
 20 46  1  0
 20 47  1  0
 24 48  1  0
 25 49  1  0
 26 50  1  0
 29 51  1  0
 29 52  1  0
M  END
>  <score>  (8) 
-8.48

$$$$
=
     RDKit          3D

 52 54  0  0  0  0  0  0  0  0999 V2000
    0.6180   66.3280   69.3760 C   0  0  0  0  0  0  0  0  0  0  0  0
    1.8960   66.0840   69.8960 C   0  0  0  0  0  0  0  0  0  0  0  0
    2.1880   64.8730   70.5320 C   0  0  0  0  0  0  0  0  0  0  0  0
    1.2010   63.8920   70.6580 C   0  0  0  0  0  0  0  0  0  0  0  0
   -0.0770   64.1360   70.1530 C   0  0  0  0  0  0  0  0  0  0  0  0
   -0.3690   65.3430   69.5160 C   0  0  0  0  0  0  0  0  0  0  0  0
    0.2920   67.6430   68.7050 C   0  0  0  0  0  0  0  0  0  0  0  0
    0.2960   67.4560   67.2600 N   0  0  0  0  0  0  0  0  0  0  0  0
    3.8010   68.1310   65.0350 C   0  0  0  0  0  0  0  0  0  0  0  0
    3.4700   69.0300   66.0590 C   0  0  0  0  0  0  0  0  0  0  0  0
    2.2960   68.8220   66.7910 C   0  0  0  0  0  0  0  0  0  0  0  0
    1.4470   67.7400   66.5160 C   0  0  0  0  0  0  0  0  0  0  0  0
    1.8440   66.8170   65.5320 C   0  0  0  0  0  0  0  0  0  0  0  0
    3.0110   67.0020   64.7830 C   0  0  0  0  0  0  0  0  0  0  0  0
    4.7090   69.0560   63.1440 C   0  0  0  0  0  0  0  0  0  0  0  0
    4.9720   68.3100   64.3310 O   0  0  0  0  0  0  0  0  0  0  0  0
    4.3350   70.0790   66.2490 O   0  0  0  0  0  0  0  0  0  0  0  0
    5.0730   70.0980   67.4640 C   0  0  0  0  0  0  0  0  0  0  0  0
    3.4470   66.1600   63.7920 O   0  0  0  0  0  0  0  0  0  0  0  0
    3.7700   64.8280   64.1670 C   0  0  0  0  0  0  0  0  0  0  0  0
    1.3610   62.6630   71.2650 O   0  0  0  0  0  0  0  0  0  0  0  0
    2.6170   62.0960   71.2690 C   0  0  0  0  0  0  0  0  0  0  0  0
    3.2250   61.7610   70.0440 C   0  0  0  0  0  0  0  0  0  0  0  0
    4.4520   61.0910   70.0710 C   0  0  0  0  0  0  0  0  0  0  0  0
    5.0970   60.8200   71.2820 C   0  0  0  0  0  0  0  0  0  0  0  0
    4.4960   61.1780   72.4880 C   0  0  0  0  0  0  0  0  0  0  0  0
    3.2480   61.8010   72.4850 C   0  0  0  0  0  0  0  0  0  0  0  0
    2.5190   62.1890   74.0010 Cl  0  0  0  0  0  0  0  0  0  0  0  0
    2.5380   61.8880   68.8240 N   0  0  0  0  0  0  0  0  0  0  0  0
    2.6775   66.8525   69.8031 H   0  0  0  0  0  0  0  0  0  0  0  0
    3.1961   64.6926   70.9336 H   0  0  0  0  0  0  0  0  0  0  0  0
   -0.8604   63.3709   70.2579 H   0  0  0  0  0  0  0  0  0  0  0  0
   -1.3800   65.5223   69.1214 H   0  0  0  0  0  0  0  0  0  0  0  0
   -0.7019   67.9853   69.0292 H   0  0  0  0  0  0  0  0  0  0  0  0
    1.0436   68.3966   68.9828 H   0  0  0  0  0  0  0  0  0  0  0  0
   -0.5511   67.1137   66.7844 H   0  0  0  0  0  0  0  0  0  0  0  0
    2.0335   69.5212   67.5986 H   0  0  0  0  0  0  0  0  0  0  0  0
    1.2223   65.9286   65.3469 H   0  0  0  0  0  0  0  0  0  0  0  0
    4.3544   70.0617   63.4140 H   0  0  0  0  0  0  0  0  0  0  0  0
    5.6319   69.1394   62.5513 H   0  0  0  0  0  0  0  0  0  0  0  0
    3.9378   68.5422   62.5513 H   0  0  0  0  0  0  0  0  0  0  0  0
    4.3773   70.0801   68.3159 H   0  0  0  0  0  0  0  0  0  0  0  0
    5.7295   69.2165   67.5081 H   0  0  0  0  0  0  0  0  0  0  0  0
    5.6832   71.0122   67.5081 H   0  0  0  0  0  0  0  0  0  0  0  0
    3.7888   64.7503   65.2641 H   0  0  0  0  0  0  0  0  0  0  0  0
    3.0127   64.1396   63.7636 H   0  0  0  0  0  0  0  0  0  0  0  0
    4.7584   64.5630   63.7636 H   0  0  0  0  0  0  0  0  0  0  0  0
    4.9166   60.7725   69.1262 H   0  0  0  0  0  0  0  0  0  0  0  0
    6.0789   60.3242   71.2830 H   0  0  0  0  0  0  0  0  0  0  0  0
    5.0052   60.9695   73.4405 H   0  0  0  0  0  0  0  0  0  0  0  0
    3.0052   61.6362   67.9412 H   0  0  0  0  0  0  0  0  0  0  0  0
    1.5675   62.2328   68.8129 H   0  0  0  0  0  0  0  0  0  0  0  0
  2  1  2  0
  3  2  1  0
  4  3  2  0
  5  4  1  0
  6  5  2  0
  6  1  1  0
  7  1  1  0
  8  7  1  0
 10  9  2  0
 11 10  1  0
 12 11  2  0
 12  8  1  0
 13 12  1  0
 14 13  2  0
 14  9  1  0
 16 15  1  0
 16  9  1  0
 17 10  1  0
 18 17  1  0
 19 14  1  0
 20 19  1  0
 21  4  1  0
 22 21  1  0
 23 22  2  0
 24 23  1  0
 25 24  2  0
 26 25  1  0
 27 26  2  0
 27 22  1  0
 28 27  1  0
 29 23  1  0
  2 30  1  0
  3 31  1  0
  5 32  1  0
  6 33  1  0
  7 34  1  0
  7 35  1  0
  8 36  1  0
 11 37  1  0
 13 38  1  0
 15 39  1  0
 15 40  1  0
 15 41  1  0
 18 42  1  0
 18 43  1  0
 18 44  1  0
 20 45  1  0
 20 46  1  0
 20 47  1  0
 24 48  1  0
 25 49  1  0
 26 50  1  0
 29 51  1  0
 29 52  1  0
M  END
>  <score>  (9) 
-8.413

$$$$
