=
     RDKit          3D

 64 67  0  0  0  0  0  0  0  0999 V2000
    1.3870   62.7490   71.7190 C   0  0  0  0  0  0  0  0  0  0  0  0
    2.1470   61.5760   71.5760 C   0  0  0  0  0  0  0  0  0  0  0  0
    3.0270   61.4290   70.5080 C   0  0  0  0  0  0  0  0  0  0  0  0
    3.1010   62.4080   69.5210 C   0  0  0  0  0  0  0  0  0  0  0  0
    2.3050   63.5550   69.6240 C   0  0  0  0  0  0  0  0  0  0  0  0
    1.4520   63.7460   70.7230 C   0  0  0  0  0  0  0  0  0  0  0  0
   -2.1850   61.6090   74.9350 C   0  0  0  0  0  0  0  0  0  0  0  0
   -2.4650   62.0790   76.1630 N   0  0  0  0  0  0  0  0  0  0  0  0
   -1.5340   63.0450   76.3710 N   0  0  0  0  0  0  0  0  0  0  0  0
   -0.6690   63.1780   75.3300 C   0  0  0  0  0  0  0  0  0  0  0  0
   -1.0640   62.2650   74.4010 C   0  0  0  0  0  0  0  0  0  0  0  0
   -0.4160   62.0720   73.1800 N   0  0  0  0  0  0  0  0  0  0  0  0
    0.6020   62.8720   72.9920 C   0  0  0  0  0  0  0  0  0  0  0  0
    1.0210   63.8320   73.9040 N   0  0  0  0  0  0  0  0  0  0  0  0
    0.4400   64.0380   75.1360 C   0  0  0  0  0  0  0  0  0  0  0  0
    0.8670   64.8560   75.9410 O   0  0  0  0  0  0  0  0  0  0  0  0
   -1.5390   63.8010   77.6020 C   0  0  0  0  0  0  0  0  0  0  0  0
   -3.0150   60.5390   74.3180 C   0  0  0  0  0  0  0  0  0  0  0  0
   -1.3740   58.6260   74.3580 C   0  0  0  0  0  0  0  0  0  0  0  0
   -2.6970   59.1540   74.8860 C   0  0  0  0  0  0  0  0  0  0  0  0
    4.0450   59.9770   70.4190 S   0  0  0  0  0  6  0  0  0  0  0  0
    5.3930   60.3550   70.7790 O   0  0  0  0  0  0  0  0  0  0  0  0
    3.7410   59.2970   69.1810 O   0  0  0  0  0  0  0  0  0  0  0  0
    3.4640   59.0060   71.6910 N   0  0  0  0  0  0  0  0  0  0  0  0
    4.1580   59.0750   73.0030 C   0  0  0  0  0  0  0  0  0  0  0  0
    3.1930   58.6270   74.1170 C   0  0  0  0  0  0  0  0  0  0  0  0
    2.6580   57.2250   73.8190 N   0  0  0  0  0  4  0  0  0  0  0  0
    1.9940   57.1680   72.4410 C   0  0  0  0  0  0  0  0  0  0  0  0
    2.9700   57.6490   71.3490 C   0  0  0  0  0  0  0  0  0  0  0  0
    1.7360   56.7430   74.9020 C   0  0  0  0  0  0  0  0  0  0  0  0
    0.6790   64.8620   70.8990 O   0  0  0  0  0  0  0  0  0  0  0  0
    1.0370   66.0560   70.1970 C   0  0  0  0  0  0  0  0  0  0  0  0
   -0.1280   66.4320   69.2990 C   0  0  0  0  0  0  0  0  0  0  0  0
    2.0456   60.7670   72.3144 H   0  0  0  0  0  0  0  0  0  0  0  0
    3.7807   62.2811   68.6655 H   0  0  0  0  0  0  0  0  0  0  0  0
    2.3484   64.3177   68.8325 H   0  0  0  0  0  0  0  0  0  0  0  0
    1.8184   64.4291   73.6421 H   0  0  0  0  0  0  0  0  0  0  0  0
   -1.5344   63.1092   78.4572 H   0  0  0  0  0  0  0  0  0  0  0  0
   -0.6451   64.4407   77.6431 H   0  0  0  0  0  0  0  0  0  0  0  0
   -2.4413   64.4288   77.6431 H   0  0  0  0  0  0  0  0  0  0  0  0
   -4.0757   60.7626   74.5050 H   0  0  0  0  0  0  0  0  0  0  0  0
   -2.7911   60.5196   73.2412 H   0  0  0  0  0  0  0  0  0  0  0  0
   -0.7199   58.3650   75.2030 H   0  0  0  0  0  0  0  0  0  0  0  0
   -1.5550   57.7312   73.7443 H   0  0  0  0  0  0  0  0  0  0  0  0
   -0.8892   59.3995   73.7443 H   0  0  0  0  0  0  0  0  0  0  0  0
   -3.4993   58.4577   74.6004 H   0  0  0  0  0  0  0  0  0  0  0  0
   -2.6229   59.2384   75.9802 H   0  0  0  0  0  0  0  0  0  0  0  0
    5.0356   58.4119   72.9892 H   0  0  0  0  0  0  0  0  0  0  0  0
    4.4832   60.1086   73.1925 H   0  0  0  0  0  0  0  0  0  0  0  0
    3.7277   58.6153   75.0782 H   0  0  0  0  0  0  0  0  0  0  0  0
    2.3490   59.3308   74.1658 H   0  0  0  0  0  0  0  0  0  0  0  0
    3.4623   56.5818   73.8009 H   0  0  0  0  0  0  0  0  0  0  0  0
    1.6938   56.1317   72.2268 H   0  0  0  0  0  0  0  0  0  0  0  0
    1.1126   57.8261   72.4442 H   0  0  0  0  0  0  0  0  0  0  0  0
    3.8205   56.9543   71.2853 H   0  0  0  0  0  0  0  0  0  0  0  0
    2.4499   57.6811   70.3802 H   0  0  0  0  0  0  0  0  0  0  0  0
    2.1737   56.9718   75.8849 H   0  0  0  0  0  0  0  0  0  0  0  0
    0.7634   57.2480   74.8072 H   0  0  0  0  0  0  0  0  0  0  0  0
    1.5956   55.6561   74.8072 H   0  0  0  0  0  0  0  0  0  0  0  0
    1.2342   66.8668   70.9137 H   0  0  0  0  0  0  0  0  0  0  0  0
    1.9462   65.8931   69.5997 H   0  0  0  0  0  0  0  0  0  0  0  0
   -0.9931   66.7112   69.9184 H   0  0  0  0  0  0  0  0  0  0  0  0
    0.1584   67.2833   68.6640 H   0  0  0  0  0  0  0  0  0  0  0  0
   -0.3933   65.5739   68.6640 H   0  0  0  0  0  0  0  0  0  0  0  0
  2  1  2  0
  3  2  1  0
  4  3  2  0
  5  4  1  0
  6  5  2  0
  6  1  1  0
  8  7  2  0
  9  8  1  0
 10  9  1  0
 11 10  2  0
 11  7  1  0
 12 11  1  0
 13 12  2  0
 13  1  1  0
 14 13  1  0
 15 14  1  0
 15 10  1  0
 16 15  2  0
 17  9  1  0
 18  7  1  0
 20 19  1  0
 20 18  1  0
 21  3  1  0
 22 21  2  0
 23 21  2  0
 24 21  1  0
 25 24  1  0
 26 25  1  0
 27 26  1  0
 28 27  1  0
 29 28  1  0
 29 24  1  0
 30 27  1  0
 31  6  1  0
 32 31  1  0
 33 32  1  0
  2 34  1  0
  4 35  1  0
  5 36  1  0
 14 37  1  0
 17 38  1  0
 17 39  1  0
 17 40  1  0
 18 41  1  0
 18 42  1  0
 19 43  1  0
 19 44  1  0
 19 45  1  0
 20 46  1  0
 20 47  1  0
 25 48  1  0
 25 49  1  0
 26 50  1  0
 26 51  1  0
 27 52  1  0
 28 53  1  0
 28 54  1  0
 29 55  1  0
 29 56  1  0
 30 57  1  0
 30 58  1  0
 30 59  1  0
 32 60  1  0
 32 61  1  0
 33 62  1  0
 33 63  1  0
 33 64  1  0
M  CHG  1  27   1
M  END
>  <score>  (1) 
-8.266

$$$$
=
     RDKit          3D

 64 67  0  0  0  0  0  0  0  0999 V2000
   -0.3100   60.4790   73.3760 C   0  0  0  0  0  0  0  0  0  0  0  0
    0.5010   59.3330   73.4110 C   0  0  0  0  0  0  0  0  0  0  0  0
    0.0340   58.1520   73.9800 C   0  0  0  0  0  0  0  0  0  0  0  0
   -1.2130   58.1190   74.6000 C   0  0  0  0  0  0  0  0  0  0  0  0
   -2.0060   59.2720   74.6200 C   0  0  0  0  0  0  0  0  0  0  0  0
   -1.5740   60.4570   74.0030 C   0  0  0  0  0  0  0  0  0  0  0  0
    2.3740   62.6870   69.8650 C   0  0  0  0  0  0  0  0  0  0  0  0
    2.4800   63.9770   69.5000 N   0  0  0  0  0  0  0  0  0  0  0  0
    1.6790   64.6380   70.3750 N   0  0  0  0  0  0  0  0  0  0  0  0
    1.0580   63.8080   71.2550 C   0  0  0  0  0  0  0  0  0  0  0  0
    1.4850   62.5520   70.9440 C   0  0  0  0  0  0  0  0  0  0  0  0
    1.0610   61.4030   71.6120 N   0  0  0  0  0  0  0  0  0  0  0  0
    0.2270   61.6400   72.5910 C   0  0  0  0  0  0  0  0  0  0  0  0
   -0.2130   62.9070   72.9540 N   0  0  0  0  0  0  0  0  0  0  0  0
    0.1460   64.0680   72.3070 C   0  0  0  0  0  0  0  0  0  0  0  0
   -0.3020   65.1650   72.6170 O   0  0  0  0  0  0  0  0  0  0  0  0
    1.5590   66.0750   70.3000 C   0  0  0  0  0  0  0  0  0  0  0  0
    3.1400   61.6260   69.1570 C   0  0  0  0  0  0  0  0  0  0  0  0
    3.6910   59.4360   70.2780 C   0  0  0  0  0  0  0  0  0  0  0  0
    4.1050   60.8860   70.0860 C   0  0  0  0  0  0  0  0  0  0  0  0
    1.0490   56.6960   73.9130 S   0  0  0  0  0  6  0  0  0  0  0  0
    1.9040   56.8040   72.7540 O   0  0  0  0  0  0  0  0  0  0  0  0
    0.1980   55.5510   74.1380 O   0  0  0  0  0  0  0  0  0  0  0  0
    2.0620   56.8570   75.2720 N   0  0  0  0  0  0  0  0  0  0  0  0
    1.4450   56.7850   76.6220 C   0  0  0  0  0  0  0  0  0  0  0  0
    2.5140   56.3690   77.6500 C   0  0  0  0  0  0  0  0  0  0  0  0
    3.6960   57.3380   77.6050 N   0  0  0  0  0  4  0  0  0  0  0  0
    4.2800   57.4320   76.1940 C   0  0  0  0  0  0  0  0  0  0  0  0
    3.1860   57.8210   75.1800 C   0  0  0  0  0  0  0  0  0  0  0  0
    4.7450   56.9780   78.6180 C   0  0  0  0  0  0  0  0  0  0  0  0
   -2.3190   61.6050   73.9570 O   0  0  0  0  0  0  0  0  0  0  0  0
   -3.0040   62.0190   75.1430 C   0  0  0  0  0  0  0  0  0  0  0  0
   -1.9740   62.6090   76.0900 C   0  0  0  0  0  0  0  0  0  0  0  0
    1.5144   59.3692   72.9848 H   0  0  0  0  0  0  0  0  0  0  0  0
   -1.5723   57.1922   75.0711 H   0  0  0  0  0  0  0  0  0  0  0  0
   -2.9822   59.2496   75.1266 H   0  0  0  0  0  0  0  0  0  0  0  0
   -0.8496   62.9826   73.7602 H   0  0  0  0  0  0  0  0  0  0  0  0
    1.5240   66.4936   71.3166 H   0  0  0  0  0  0  0  0  0  0  0  0
    2.4258   66.4878   69.7631 H   0  0  0  0  0  0  0  0  0  0  0  0
    0.6357   66.3383   69.7631 H   0  0  0  0  0  0  0  0  0  0  0  0
    2.4300   60.9000   68.7340 H   0  0  0  0  0  0  0  0  0  0  0  0
    3.7367   62.1108   68.3703 H   0  0  0  0  0  0  0  0  0  0  0  0
    3.6271   59.2122   71.3531 H   0  0  0  0  0  0  0  0  0  0  0  0
    2.7095   59.2698   69.8099 H   0  0  0  0  0  0  0  0  0  0  0  0
    4.4368   58.7767   69.8099 H   0  0  0  0  0  0  0  0  0  0  0  0
    4.1144   61.3877   71.0649 H   0  0  0  0  0  0  0  0  0  0  0  0
    5.1052   60.9019   69.6285 H   0  0  0  0  0  0  0  0  0  0  0  0
    1.0387   57.7706   76.8931 H   0  0  0  0  0  0  0  0  0  0  0  0
    0.6321   56.0440   76.6161 H   0  0  0  0  0  0  0  0  0  0  0  0
    2.0729   56.3806   78.6576 H   0  0  0  0  0  0  0  0  0  0  0  0
    2.8704   55.3570   77.4074 H   0  0  0  0  0  0  0  0  0  0  0  0
    3.3427   58.2723   77.8563 H   0  0  0  0  0  0  0  0  0  0  0  0
    5.0730   58.1942   76.1808 H   0  0  0  0  0  0  0  0  0  0  0  0
    4.6912   56.4510   75.9138 H   0  0  0  0  0  0  0  0  0  0  0  0
    2.8202   58.8336   75.4055 H   0  0  0  0  0  0  0  0  0  0  0  0
    3.6045   57.8008   74.1629 H   0  0  0  0  0  0  0  0  0  0  0  0
    4.3395   57.1172   79.6310 H   0  0  0  0  0  0  0  0  0  0  0  0
    5.0403   55.9271   78.4824 H   0  0  0  0  0  0  0  0  0  0  0  0
    5.6234   57.6261   78.4824 H   0  0  0  0  0  0  0  0  0  0  0  0
   -3.7606   62.7773   74.8931 H   0  0  0  0  0  0  0  0  0  0  0  0
   -3.5128   61.1639   75.6120 H   0  0  0  0  0  0  0  0  0  0  0  0
   -2.2865   62.4300   77.1294 H   0  0  0  0  0  0  0  0  0  0  0  0
   -0.9983   62.1329   75.9133 H   0  0  0  0  0  0  0  0  0  0  0  0
   -1.8911   63.6915   75.9133 H   0  0  0  0  0  0  0  0  0  0  0  0
  2  1  2  0
  3  2  1  0
  4  3  2  0
  5  4  1  0
  6  5  2  0
  6  1  1  0
  8  7  2  0
  9  8  1  0
 10  9  1  0
 11 10  2  0
 11  7  1  0
 12 11  1  0
 13 12  2  0
 13  1  1  0
 14 13  1  0
 15 14  1  0
 15 10  1  0
 16 15  2  0
 17  9  1  0
 18  7  1  0
 20 19  1  0
 20 18  1  0
 21  3  1  0
 22 21  2  0
 23 21  2  0
 24 21  1  0
 25 24  1  0
 26 25  1  0
 27 26  1  0
 28 27  1  0
 29 28  1  0
 29 24  1  0
 30 27  1  0
 31  6  1  0
 32 31  1  0
 33 32  1  0
  2 34  1  0
  4 35  1  0
  5 36  1  0
 14 37  1  0
 17 38  1  0
 17 39  1  0
 17 40  1  0
 18 41  1  0
 18 42  1  0
 19 43  1  0
 19 44  1  0
 19 45  1  0
 20 46  1  0
 20 47  1  0
 25 48  1  0
 25 49  1  0
 26 50  1  0
 26 51  1  0
 27 52  1  0
 28 53  1  0
 28 54  1  0
 29 55  1  0
 29 56  1  0
 30 57  1  0
 30 58  1  0
 30 59  1  0
 32 60  1  0
 32 61  1  0
 33 62  1  0
 33 63  1  0
 33 64  1  0
M  CHG  1  27   1
M  END
>  <score>  (2) 
-7.847

$$$$
=
     RDKit          3D

 64 67  0  0  0  0  0  0  0  0999 V2000
    1.9510   59.6570   72.3320 C   0  0  0  0  0  0  0  0  0  0  0  0
    1.4780   58.5370   73.0350 C   0  0  0  0  0  0  0  0  0  0  0  0
    1.9820   57.2680   72.7650 C   0  0  0  0  0  0  0  0  0  0  0  0
    2.8990   57.0830   71.7340 C   0  0  0  0  0  0  0  0  0  0  0  0
    3.3340   58.1850   70.9890 C   0  0  0  0  0  0  0  0  0  0  0  0
    2.8780   59.4800   71.2820 C   0  0  0  0  0  0  0  0  0  0  0  0
    0.3230   64.2990   71.8720 C   0  0  0  0  0  0  0  0  0  0  0  0
   -0.0820   65.1980   72.7860 N   0  0  0  0  0  0  0  0  0  0  0  0
    0.0920   64.5670   73.9750 N   0  0  0  0  0  0  0  0  0  0  0  0
    0.5650   63.2990   73.8370 C   0  0  0  0  0  0  0  0  0  0  0  0
    0.7160   63.1050   72.4970 C   0  0  0  0  0  0  0  0  0  0  0  0
    1.1690   61.9110   71.9350 N   0  0  0  0  0  0  0  0  0  0  0  0
    1.4650   60.9920   72.8180 C   0  0  0  0  0  0  0  0  0  0  0  0
    1.3480   61.1600   74.1910 N   0  0  0  0  0  0  0  0  0  0  0  0
    0.8720   62.3020   74.7950 C   0  0  0  0  0  0  0  0  0  0  0  0
    0.7290   62.4010   76.0080 O   0  0  0  0  0  0  0  0  0  0  0  0
   -0.2230   65.2490   75.2080 C   0  0  0  0  0  0  0  0  0  0  0  0
    0.3170   64.6270   70.4200 C   0  0  0  0  0  0  0  0  0  0  0  0
    1.2070   66.8320   69.5830 C   0  0  0  0  0  0  0  0  0  0  0  0
    0.0050   66.1020   70.1580 C   0  0  0  0  0  0  0  0  0  0  0  0
    1.4350   55.8920   73.7460 S   0  0  0  0  0  6  0  0  0  0  0  0
    2.3430   54.7930   73.5170 O   0  0  0  0  0  0  0  0  0  0  0  0
    0.0070   55.7610   73.5690 O   0  0  0  0  0  0  0  0  0  0  0  0
    1.7060   56.4120   75.3440 N   0  0  0  0  0  0  0  0  0  0  0  0
    3.0340   56.1430   75.9560 C   0  0  0  0  0  0  0  0  0  0  0  0
    3.2840   57.1480   77.0970 C   0  0  0  0  0  0  0  0  0  0  0  0
    2.1500   57.0770   78.1210 N   0  0  0  0  0  4  0  0  0  0  0  0
    0.7900   57.3060   77.4570 C   0  0  0  0  0  0  0  0  0  0  0  0
    0.5770   56.3080   76.3010 C   0  0  0  0  0  0  0  0  0  0  0  0
    2.3770   58.0230   79.2640 C   0  0  0  0  0  0  0  0  0  0  0  0
    3.2940   60.6010   70.6150 O   0  0  0  0  0  0  0  0  0  0  0  0
    4.6990   60.8400   70.4960 C   0  0  0  0  0  0  0  0  0  0  0  0
    5.2050   61.3110   71.8480 C   0  0  0  0  0  0  0  0  0  0  0  0
    0.7030   58.6637   73.8052 H   0  0  0  0  0  0  0  0  0  0  0  0
    3.2795   56.0764   71.5062 H   0  0  0  0  0  0  0  0  0  0  0  0
    4.0434   58.0343   70.1620 H   0  0  0  0  0  0  0  0  0  0  0  0
    1.6362   60.3791   74.7977 H   0  0  0  0  0  0  0  0  0  0  0  0
    0.0684   64.6182   76.0607 H   0  0  0  0  0  0  0  0  0  0  0  0
    0.3267   66.2008   75.2513 H   0  0  0  0  0  0  0  0  0  0  0  0
   -1.3041   65.4476   75.2513 H   0  0  0  0  0  0  0  0  0  0  0  0
    1.3074   64.3953   70.0011 H   0  0  0  0  0  0  0  0  0  0  0  0
   -0.4719   64.0268   69.9432 H   0  0  0  0  0  0  0  0  0  0  0  0
    1.8326   67.2119   70.4042 H   0  0  0  0  0  0  0  0  0  0  0  0
    1.7956   66.1386   68.9643 H   0  0  0  0  0  0  0  0  0  0  0  0
    0.8631   67.6740   68.9643 H   0  0  0  0  0  0  0  0  0  0  0  0
   -0.2837   66.5800   71.1057 H   0  0  0  0  0  0  0  0  0  0  0  0
   -0.8144   66.1566   69.4261 H   0  0  0  0  0  0  0  0  0  0  0  0
    3.0524   55.1192   76.3579 H   0  0  0  0  0  0  0  0  0  0  0  0
    3.8190   56.2502   75.1930 H   0  0  0  0  0  0  0  0  0  0  0  0
    4.2362   56.9064   77.5919 H   0  0  0  0  0  0  0  0  0  0  0  0
    3.3260   58.1641   76.6777 H   0  0  0  0  0  0  0  0  0  0  0  0
    2.1453   56.1252   78.5147 H   0  0  0  0  0  0  0  0  0  0  0  0
   -0.0052   57.1688   78.2045 H   0  0  0  0  0  0  0  0  0  0  0  0
    0.7595   58.3288   77.0534 H   0  0  0  0  0  0  0  0  0  0  0  0
    0.5303   55.2853   76.7033 H   0  0  0  0  0  0  0  0  0  0  0  0
   -0.3652   56.5416   75.7836 H   0  0  0  0  0  0  0  0  0  0  0  0
    2.2482   57.4861   80.2154 H   0  0  0  0  0  0  0  0  0  0  0  0
    3.3979   58.4285   79.2071 H   0  0  0  0  0  0  0  0  0  0  0  0
    1.6512   58.8476   79.2071 H   0  0  0  0  0  0  0  0  0  0  0  0
    5.2134   59.9118   70.2064 H   0  0  0  0  0  0  0  0  0  0  0  0
    4.8959   61.6001   69.7256 H   0  0  0  0  0  0  0  0  0  0  0  0
    4.6513   60.7956   72.6466 H   0  0  0  0  0  0  0  0  0  0  0  0
    6.2771   61.0819   71.9384 H   0  0  0  0  0  0  0  0  0  0  0  0
    5.0532   62.3967   71.9384 H   0  0  0  0  0  0  0  0  0  0  0  0
  2  1  2  0
  3  2  1  0
  4  3  2  0
  5  4  1  0
  6  5  2  0
  6  1  1  0
  8  7  2  0
  9  8  1  0
 10  9  1  0
 11 10  2  0
 11  7  1  0
 12 11  1  0
 13 12  2  0
 13  1  1  0
 14 13  1  0
 15 14  1  0
 15 10  1  0
 16 15  2  0
 17  9  1  0
 18  7  1  0
 20 19  1  0
 20 18  1  0
 21  3  1  0
 22 21  2  0
 23 21  2  0
 24 21  1  0
 25 24  1  0
 26 25  1  0
 27 26  1  0
 28 27  1  0
 29 28  1  0
 29 24  1  0
 30 27  1  0
 31  6  1  0
 32 31  1  0
 33 32  1  0
  2 34  1  0
  4 35  1  0
  5 36  1  0
 14 37  1  0
 17 38  1  0
 17 39  1  0
 17 40  1  0
 18 41  1  0
 18 42  1  0
 19 43  1  0
 19 44  1  0
 19 45  1  0
 20 46  1  0
 20 47  1  0
 25 48  1  0
 25 49  1  0
 26 50  1  0
 26 51  1  0
 27 52  1  0
 28 53  1  0
 28 54  1  0
 29 55  1  0
 29 56  1  0
 30 57  1  0
 30 58  1  0
 30 59  1  0
 32 60  1  0
 32 61  1  0
 33 62  1  0
 33 63  1  0
 33 64  1  0
M  CHG  1  27   1
M  END
>  <score>  (3) 
-7.524

$$$$
=
     RDKit          3D

 64 67  0  0  0  0  0  0  0  0999 V2000
    0.8100   67.0770   69.1430 C   0  0  0  0  0  0  0  0  0  0  0  0
    1.9270   67.9260   69.1090 C   0  0  0  0  0  0  0  0  0  0  0  0
    1.8800   69.1330   68.4160 C   0  0  0  0  0  0  0  0  0  0  0  0
    0.7500   69.4700   67.6750 C   0  0  0  0  0  0  0  0  0  0  0  0
   -0.3490   68.6030   67.6550 C   0  0  0  0  0  0  0  0  0  0  0  0
   -0.3390   67.4080   68.3930 C   0  0  0  0  0  0  0  0  0  0  0  0
    2.4200   62.6370   70.5910 C   0  0  0  0  0  0  0  0  0  0  0  0
    2.1980   61.9270   71.7120 N   0  0  0  0  0  0  0  0  0  0  0  0
    1.3370   62.6960   72.4270 N   0  0  0  0  0  0  0  0  0  0  0  0
    1.0340   63.8680   71.8080 C   0  0  0  0  0  0  0  0  0  0  0  0
    1.7200   63.8530   70.6310 C   0  0  0  0  0  0  0  0  0  0  0  0
    1.6890   64.8960   69.7050 N   0  0  0  0  0  0  0  0  0  0  0  0
    0.9140   65.8890   70.0550 C   0  0  0  0  0  0  0  0  0  0  0  0
    0.1790   65.9310   71.2330 N   0  0  0  0  0  0  0  0  0  0  0  0
    0.2030   64.9470   72.1970 C   0  0  0  0  0  0  0  0  0  0  0  0
   -0.4140   65.0370   73.2510 O   0  0  0  0  0  0  0  0  0  0  0  0
    0.8490   62.2350   73.7060 C   0  0  0  0  0  0  0  0  0  0  0  0
    3.3040   62.1110   69.5150 C   0  0  0  0  0  0  0  0  0  0  0  0
    3.4980   59.5970   69.5410 C   0  0  0  0  0  0  0  0  0  0  0  0
    4.1310   60.9090   69.9770 C   0  0  0  0  0  0  0  0  0  0  0  0
    3.2770   70.2260   68.4830 S   0  0  0  0  0  6  0  0  0  0  0  0
    4.1710   69.7440   69.5110 O   0  0  0  0  0  0  0  0  0  0  0  0
    2.7800   71.5820   68.4700 O   0  0  0  0  0  0  0  0  0  0  0  0
    4.0640   69.9550   66.9990 N   0  0  0  0  0  0  0  0  0  0  0  0
    3.4870   68.9510   66.0680 C   0  0  0  0  0  0  0  0  0  0  0  0
    3.9480   69.2600   64.6310 C   0  0  0  0  0  0  0  0  0  0  0  0
    5.4760   69.2990   64.5640 N   0  0  0  0  0  4  0  0  0  0  0  0
    6.0480   70.3030   65.5680 C   0  0  0  0  0  0  0  0  0  0  0  0
    5.5480   69.9900   66.9920 C   0  0  0  0  0  0  0  0  0  0  0  0
    5.9610   69.5680   63.1690 C   0  0  0  0  0  0  0  0  0  0  0  0
   -1.3960   66.5380   68.4430 O   0  0  0  0  0  0  0  0  0  0  0  0
   -2.2290   66.4130   67.2880 C   0  0  0  0  0  0  0  0  0  0  0  0
   -3.0280   67.6970   67.1520 C   0  0  0  0  0  0  0  0  0  0  0  0
    2.8484   67.6353   69.6348 H   0  0  0  0  0  0  0  0  0  0  0  0
    0.7212   70.4124   67.1084 H   0  0  0  0  0  0  0  0  0  0  0  0
   -1.2326   68.8612   67.0529 H   0  0  0  0  0  0  0  0  0  0  0  0
   -0.4228   66.7508   71.3963 H   0  0  0  0  0  0  0  0  0  0  0  0
    1.3927   62.7486   74.5126 H   0  0  0  0  0  0  0  0  0  0  0  0
   -0.2254   62.4556   73.7897 H   0  0  0  0  0  0  0  0  0  0  0  0
    1.0081   61.1498   73.7897 H   0  0  0  0  0  0  0  0  0  0  0  0
    2.6796   61.8041   68.6630 H   0  0  0  0  0  0  0  0  0  0  0  0
    4.0035   62.9118   69.2333 H   0  0  0  0  0  0  0  0  0  0  0  0
    3.2161   59.0128   70.4294 H   0  0  0  0  0  0  0  0  0  0  0  0
    2.6011   59.8048   68.9391 H   0  0  0  0  0  0  0  0  0  0  0  0
    4.2189   59.0243   68.9391 H   0  0  0  0  0  0  0  0  0  0  0  0
    4.2019   60.9244   71.0746 H   0  0  0  0  0  0  0  0  0  0  0  0
    5.1288   60.9799   69.5194 H   0  0  0  0  0  0  0  0  0  0  0  0
    3.8290   67.9456   66.3548 H   0  0  0  0  0  0  0  0  0  0  0  0
    2.3889   68.9924   66.1181 H   0  0  0  0  0  0  0  0  0  0  0  0
    3.5743   68.4783   63.9534 H   0  0  0  0  0  0  0  0  0  0  0  0
    3.5500   70.2400   64.3289 H   0  0  0  0  0  0  0  0  0  0  0  0
    5.8239   68.3663   64.8285 H   0  0  0  0  0  0  0  0  0  0  0  0
    7.1464   70.2467   65.5499 H   0  0  0  0  0  0  0  0  0  0  0  0
    5.7144   71.3133   65.2888 H   0  0  0  0  0  0  0  0  0  0  0  0
    5.9393   69.0128   67.3115 H   0  0  0  0  0  0  0  0  0  0  0  0
    5.8996   70.7698   67.6836 H   0  0  0  0  0  0  0  0  0  0  0  0
    6.9222   70.1011   63.2114 H   0  0  0  0  0  0  0  0  0  0  0  0
    6.0937   68.6146   62.6367 H   0  0  0  0  0  0  0  0  0  0  0  0
    5.2224   70.1854   62.6367 H   0  0  0  0  0  0  0  0  0  0  0  0
   -1.6077   66.2621   66.3929 H   0  0  0  0  0  0  0  0  0  0  0  0
   -2.9029   65.5498   67.3914 H   0  0  0  0  0  0  0  0  0  0  0  0
   -3.2700   68.0859   68.1521 H   0  0  0  0  0  0  0  0  0  0  0  0
   -2.4338   68.4422   66.6027 H   0  0  0  0  0  0  0  0  0  0  0  0
   -3.9590   67.4931   66.6027 H   0  0  0  0  0  0  0  0  0  0  0  0
  2  1  2  0
  3  2  1  0
  4  3  2  0
  5  4  1  0
  6  5  2  0
  6  1  1  0
  8  7  2  0
  9  8  1  0
 10  9  1  0
 11 10  2  0
 11  7  1  0
 12 11  1  0
 13 12  2  0
 13  1  1  0
 14 13  1  0
 15 14  1  0
 15 10  1  0
 16 15  2  0
 17  9  1  0
 18  7  1  0
 20 19  1  0
 20 18  1  0
 21  3  1  0
 22 21  2  0
 23 21  2  0
 24 21  1  0
 25 24  1  0
 26 25  1  0
 27 26  1  0
 28 27  1  0
 29 28  1  0
 29 24  1  0
 30 27  1  0
 31  6  1  0
 32 31  1  0
 33 32  1  0
  2 34  1  0
  4 35  1  0
  5 36  1  0
 14 37  1  0
 17 38  1  0
 17 39  1  0
 17 40  1  0
 18 41  1  0
 18 42  1  0
 19 43  1  0
 19 44  1  0
 19 45  1  0
 20 46  1  0
 20 47  1  0
 25 48  1  0
 25 49  1  0
 26 50  1  0
 26 51  1  0
 27 52  1  0
 28 53  1  0
 28 54  1  0
 29 55  1  0
 29 56  1  0
 30 57  1  0
 30 58  1  0
 30 59  1  0
 32 60  1  0
 32 61  1  0
 33 62  1  0
 33 63  1  0
 33 64  1  0
M  CHG  1  27   1
M  END
>  <score>  (4) 
-7.46

$$$$
=
     RDKit          3D

 64 67  0  0  0  0  0  0  0  0999 V2000
    0.4340   62.1790   75.3390 C   0  0  0  0  0  0  0  0  0  0  0  0
    1.2450   61.0340   75.3960 C   0  0  0  0  0  0  0  0  0  0  0  0
    1.1230   60.1300   76.4480 C   0  0  0  0  0  0  0  0  0  0  0  0
    0.2530   60.3970   77.5020 C   0  0  0  0  0  0  0  0  0  0  0  0
   -0.5190   61.5640   77.4840 C   0  0  0  0  0  0  0  0  0  0  0  0
   -0.4490   62.4590   76.4040 C   0  0  0  0  0  0  0  0  0  0  0  0
    1.8110   63.1410   70.6940 C   0  0  0  0  0  0  0  0  0  0  0  0
    1.5490   64.1800   69.8810 N   0  0  0  0  0  0  0  0  0  0  0  0
    0.8050   65.0210   70.6440 N   0  0  0  0  0  0  0  0  0  0  0  0
    0.5710   64.5360   71.8930 C   0  0  0  0  0  0  0  0  0  0  0  0
    1.2030   63.3300   71.9460 C   0  0  0  0  0  0  0  0  0  0  0  0
    1.1890   62.4970   73.0650 N   0  0  0  0  0  0  0  0  0  0  0  0
    0.5300   62.9910   74.0810 C   0  0  0  0  0  0  0  0  0  0  0  0
   -0.1060   64.2260   74.0750 N   0  0  0  0  0  0  0  0  0  0  0  0
   -0.1540   65.0690   72.9870 C   0  0  0  0  0  0  0  0  0  0  0  0
   -0.7700   66.1280   72.9950 O   0  0  0  0  0  0  0  0  0  0  0  0
    0.3500   66.2790   70.1000 C   0  0  0  0  0  0  0  0  0  0  0  0
    2.6450   61.9990   70.2310 C   0  0  0  0  0  0  0  0  0  0  0  0
    4.8640   63.1850   70.3990 C   0  0  0  0  0  0  0  0  0  0  0  0
    3.8960   62.4590   69.4790 C   0  0  0  0  0  0  0  0  0  0  0  0
    2.0930   58.6430   76.4300 S   0  0  0  0  0  6  0  0  0  0  0  0
    1.2150   57.5350   76.7280 O   0  0  0  0  0  0  0  0  0  0  0  0
    3.3000   58.8920   77.1830 O   0  0  0  0  0  0  0  0  0  0  0  0
    2.5350   58.4780   74.7950 N   0  0  0  0  0  0  0  0  0  0  0  0
    2.0450   57.2890   74.0490 C   0  0  0  0  0  0  0  0  0  0  0  0
    2.0360   57.5990   72.5410 C   0  0  0  0  0  0  0  0  0  0  0  0
    3.4300   58.0340   72.0830 N   0  0  0  0  0  4  0  0  0  0  0  0
    3.9320   59.2260   72.9000 C   0  0  0  0  0  0  0  0  0  0  0  0
    3.9030   58.9020   74.4070 C   0  0  0  0  0  0  0  0  0  0  0  0
    3.4650   58.3150   70.6080 C   0  0  0  0  0  0  0  0  0  0  0  0
   -1.2050   63.5980   76.3110 O   0  0  0  0  0  0  0  0  0  0  0  0
   -2.1820   63.8490   77.3240 C   0  0  0  0  0  0  0  0  0  0  0  0
   -3.5520   63.7900   76.6710 C   0  0  0  0  0  0  0  0  0  0  0  0
    1.9837   60.8495   74.6020 H   0  0  0  0  0  0  0  0  0  0  0  0
    0.1730   59.6942   78.3444 H   0  0  0  0  0  0  0  0  0  0  0  0
   -1.1900   61.7834   78.3275 H   0  0  0  0  0  0  0  0  0  0  0  0
   -0.5723   64.5313   74.9412 H   0  0  0  0  0  0  0  0  0  0  0  0
    0.1016   66.9658   70.9226 H   0  0  0  0  0  0  0  0  0  0  0  0
    1.1455   66.7202   69.4815 H   0  0  0  0  0  0  0  0  0  0  0  0
   -0.5437   66.1092   69.4815 H   0  0  0  0  0  0  0  0  0  0  0  0
    2.9555   61.4101   71.1067 H   0  0  0  0  0  0  0  0  0  0  0  0
    2.0377   61.3990   69.5373 H   0  0  0  0  0  0  0  0  0  0  0  0
    4.5953   62.9835   71.4465 H   0  0  0  0  0  0  0  0  0  0  0  0
    5.8875   62.8299   70.2081 H   0  0  0  0  0  0  0  0  0  0  0  0
    4.8097   64.2670   70.2081 H   0  0  0  0  0  0  0  0  0  0  0  0
    3.5957   63.1388   68.6680 H   0  0  0  0  0  0  0  0  0  0  0  0
    4.4034   61.5696   69.0770 H   0  0  0  0  0  0  0  0  0  0  0  0
    2.7093   56.4342   74.2439 H   0  0  0  0  0  0  0  0  0  0  0  0
    1.0251   57.0428   74.3794 H   0  0  0  0  0  0  0  0  0  0  0  0
    1.7361   56.6976   71.9864 H   0  0  0  0  0  0  0  0  0  0  0  0
    1.3234   58.4140   72.3462 H   0  0  0  0  0  0  0  0  0  0  0  0
    4.0741   57.2487   72.2543 H   0  0  0  0  0  0  0  0  0  0  0  0
    4.9641   59.4605   72.6005 H   0  0  0  0  0  0  0  0  0  0  0  0
    3.2754   60.0878   72.7099 H   0  0  0  0  0  0  0  0  0  0  0  0
    4.6133   58.0899   74.6213 H   0  0  0  0  0  0  0  0  0  0  0  0
    4.1861   59.7971   74.9802 H   0  0  0  0  0  0  0  0  0  0  0  0
    3.5994   59.3943   70.4434 H   0  0  0  0  0  0  0  0  0  0  0  0
    4.3019   57.7672   70.1501 H   0  0  0  0  0  0  0  0  0  0  0  0
    2.5193   57.9893   70.1501 H   0  0  0  0  0  0  0  0  0  0  0  0
   -2.1095   63.0846   78.1117 H   0  0  0  0  0  0  0  0  0  0  0  0
   -2.0164   64.8352   77.7822 H   0  0  0  0  0  0  0  0  0  0  0  0
   -4.3282   63.7566   77.4497 H   0  0  0  0  0  0  0  0  0  0  0  0
   -3.6986   64.6827   76.0452 H   0  0  0  0  0  0  0  0  0  0  0  0
   -3.6214   62.8880   76.0452 H   0  0  0  0  0  0  0  0  0  0  0  0
  2  1  2  0
  3  2  1  0
  4  3  2  0
  5  4  1  0
  6  5  2  0
  6  1  1  0
  8  7  2  0
  9  8  1  0
 10  9  1  0
 11 10  2  0
 11  7  1  0
 12 11  1  0
 13 12  2  0
 13  1  1  0
 14 13  1  0
 15 14  1  0
 15 10  1  0
 16 15  2  0
 17  9  1  0
 18  7  1  0
 20 19  1  0
 20 18  1  0
 21  3  1  0
 22 21  2  0
 23 21  2  0
 24 21  1  0
 25 24  1  0
 26 25  1  0
 27 26  1  0
 28 27  1  0
 29 28  1  0
 29 24  1  0
 30 27  1  0
 31  6  1  0
 32 31  1  0
 33 32  1  0
  2 34  1  0
  4 35  1  0
  5 36  1  0
 14 37  1  0
 17 38  1  0
 17 39  1  0
 17 40  1  0
 18 41  1  0
 18 42  1  0
 19 43  1  0
 19 44  1  0
 19 45  1  0
 20 46  1  0
 20 47  1  0
 25 48  1  0
 25 49  1  0
 26 50  1  0
 26 51  1  0
 27 52  1  0
 28 53  1  0
 28 54  1  0
 29 55  1  0
 29 56  1  0
 30 57  1  0
 30 58  1  0
 30 59  1  0
 32 60  1  0
 32 61  1  0
 33 62  1  0
 33 63  1  0
 33 64  1  0
M  CHG  1  27   1
M  END
>  <score>  (5) 
-7.376

$$$$
=
     RDKit          3D

 64 67  0  0  0  0  0  0  0  0999 V2000
    0.7310   67.1040   67.8230 C   0  0  0  0  0  0  0  0  0  0  0  0
    1.8960   67.2490   67.0520 C   0  0  0  0  0  0  0  0  0  0  0  0
    1.9330   68.1420   65.9850 C   0  0  0  0  0  0  0  0  0  0  0  0
    0.7860   68.8400   65.6160 C   0  0  0  0  0  0  0  0  0  0  0  0
   -0.3970   68.6600   66.3430 C   0  0  0  0  0  0  0  0  0  0  0  0
   -0.4370   67.8040   67.4560 C   0  0  0  0  0  0  0  0  0  0  0  0
    2.6780   63.5550   70.6540 C   0  0  0  0  0  0  0  0  0  0  0  0
    2.3900   63.1500   71.9040 N   0  0  0  0  0  0  0  0  0  0  0  0
    1.3430   63.9310   72.2740 N   0  0  0  0  0  0  0  0  0  0  0  0
    0.9830   64.8230   71.3140 C   0  0  0  0  0  0  0  0  0  0  0  0
    1.8280   64.6030   70.2680 C   0  0  0  0  0  0  0  0  0  0  0  0
    1.7960   65.3350   69.0810 N   0  0  0  0  0  0  0  0  0  0  0  0
    0.8560   66.2440   69.0470 C   0  0  0  0  0  0  0  0  0  0  0  0
   -0.0400   66.4820   70.0810 N   0  0  0  0  0  0  0  0  0  0  0  0
   -0.0280   65.8160   71.2860 C   0  0  0  0  0  0  0  0  0  0  0  0
   -0.7970   66.0860   72.2010 O   0  0  0  0  0  0  0  0  0  0  0  0
    0.7400   63.7610   73.5760 C   0  0  0  0  0  0  0  0  0  0  0  0
    3.7680   62.9090   69.8730 C   0  0  0  0  0  0  0  0  0  0  0  0
    5.3210   61.3140   71.0560 C   0  0  0  0  0  0  0  0  0  0  0  0
    5.0580   62.7630   70.6840 C   0  0  0  0  0  0  0  0  0  0  0  0
    3.4550   68.3730   65.1000 S   0  0  0  0  0  6  0  0  0  0  0  0
    3.1940   69.2610   63.9910 O   0  0  0  0  0  0  0  0  0  0  0  0
    4.0650   67.0760   64.9210 O   0  0  0  0  0  0  0  0  0  0  0  0
    4.4220   69.2460   66.1950 N   0  0  0  0  0  0  0  0  0  0  0  0
    3.7480   70.0090   67.2780 C   0  0  0  0  0  0  0  0  0  0  0  0
    4.7310   70.2190   68.4440 C   0  0  0  0  0  0  0  0  0  0  0  0
    5.9980   70.9180   67.9480 N   0  0  0  0  0  4  0  0  0  0  0  0
    6.6450   70.1390   66.8000 C   0  0  0  0  0  0  0  0  0  0  0  0
    5.6330   69.9170   65.6590 C   0  0  0  0  0  0  0  0  0  0  0  0
    6.9670   71.1660   69.0670 C   0  0  0  0  0  0  0  0  0  0  0  0
   -1.5530   67.6150   68.2280 O   0  0  0  0  0  0  0  0  0  0  0  0
   -2.7060   67.0230   67.6240 C   0  0  0  0  0  0  0  0  0  0  0  0
   -3.3150   68.0510   66.6860 C   0  0  0  0  0  0  0  0  0  0  0  0
    2.7873   66.6514   67.2936 H   0  0  0  0  0  0  0  0  0  0  0  0
    0.8092   69.5286   64.7585 H   0  0  0  0  0  0  0  0  0  0  0  0
   -1.3077   69.1964   66.0383 H   0  0  0  0  0  0  0  0  0  0  0  0
   -0.7605   67.2038   69.9371 H   0  0  0  0  0  0  0  0  0  0  0  0
    1.4864   63.9714   74.3561 H   0  0  0  0  0  0  0  0  0  0  0  0
   -0.1065   64.4555   73.6816 H   0  0  0  0  0  0  0  0  0  0  0  0
    0.3810   62.7266   73.6816 H   0  0  0  0  0  0  0  0  0  0  0  0
    3.4331   61.9095   69.5587 H   0  0  0  0  0  0  0  0  0  0  0  0
    3.9866   63.5511   69.0070 H   0  0  0  0  0  0  0  0  0  0  0  0
    5.3391   61.2141   72.1513 H   0  0  0  0  0  0  0  0  0  0  0  0
    4.5235   60.6789   70.6430 H   0  0  0  0  0  0  0  0  0  0  0  0
    6.2909   60.9997   70.6430 H   0  0  0  0  0  0  0  0  0  0  0  0
    4.9705   63.3582   71.6049 H   0  0  0  0  0  0  0  0  0  0  0  0
    5.8960   63.1182   70.0662 H   0  0  0  0  0  0  0  0  0  0  0  0
    3.4234   70.9862   66.8911 H   0  0  0  0  0  0  0  0  0  0  0  0
    2.8718   69.4466   67.6330 H   0  0  0  0  0  0  0  0  0  0  0  0
    4.2521   70.8397   69.2156 H   0  0  0  0  0  0  0  0  0  0  0  0
    5.0029   69.2397   68.8648 H   0  0  0  0  0  0  0  0  0  0  0  0
    5.7218   71.8394   67.5798 H   0  0  0  0  0  0  0  0  0  0  0  0
    7.5044   70.7081   66.4158 H   0  0  0  0  0  0  0  0  0  0  0  0
    6.9758   69.1600   67.1770 H   0  0  0  0  0  0  0  0  0  0  0  0
    5.3522   70.8875   65.2240 H   0  0  0  0  0  0  0  0  0  0  0  0
    6.0888   69.2852   64.8825 H   0  0  0  0  0  0  0  0  0  0  0  0
    6.4547   71.0349   70.0315 H   0  0  0  0  0  0  0  0  0  0  0  0
    7.8010   70.4523   68.9948 H   0  0  0  0  0  0  0  0  0  0  0  0
    7.3556   72.1925   68.9948 H   0  0  0  0  0  0  0  0  0  0  0  0
   -2.4137   66.1262   67.0581 H   0  0  0  0  0  0  0  0  0  0  0  0
   -3.4335   66.7244   68.3932 H   0  0  0  0  0  0  0  0  0  0  0  0
   -3.7884   68.8501   67.2753 H   0  0  0  0  0  0  0  0  0  0  0  0
   -2.5261   68.4814   66.0517 H   0  0  0  0  0  0  0  0  0  0  0  0
   -4.0715   67.5659   66.0517 H   0  0  0  0  0  0  0  0  0  0  0  0
  2  1  2  0
  3  2  1  0
  4  3  2  0
  5  4  1  0
  6  5  2  0
  6  1  1  0
  8  7  2  0
  9  8  1  0
 10  9  1  0
 11 10  2  0
 11  7  1  0
 12 11  1  0
 13 12  2  0
 13  1  1  0
 14 13  1  0
 15 14  1  0
 15 10  1  0
 16 15  2  0
 17  9  1  0
 18  7  1  0
 20 19  1  0
 20 18  1  0
 21  3  1  0
 22 21  2  0
 23 21  2  0
 24 21  1  0
 25 24  1  0
 26 25  1  0
 27 26  1  0
 28 27  1  0
 29 28  1  0
 29 24  1  0
 30 27  1  0
 31  6  1  0
 32 31  1  0
 33 32  1  0
  2 34  1  0
  4 35  1  0
  5 36  1  0
 14 37  1  0
 17 38  1  0
 17 39  1  0
 17 40  1  0
 18 41  1  0
 18 42  1  0
 19 43  1  0
 19 44  1  0
 19 45  1  0
 20 46  1  0
 20 47  1  0
 25 48  1  0
 25 49  1  0
 26 50  1  0
 26 51  1  0
 27 52  1  0
 28 53  1  0
 28 54  1  0
 29 55  1  0
 29 56  1  0
 30 57  1  0
 30 58  1  0
 30 59  1  0
 32 60  1  0
 32 61  1  0
 33 62  1  0
 33 63  1  0
 33 64  1  0
M  CHG  1  27   1
M  END
>  <score>  (6) 
-7.365

$$$$
=
     RDKit          3D

 64 67  0  0  0  0  0  0  0  0999 V2000
    2.7590   58.9640   73.8350 C   0  0  0  0  0  0  0  0  0  0  0  0
    3.5120   59.6740   72.8860 C   0  0  0  0  0  0  0  0  0  0  0  0
    3.5720   59.2420   71.5640 C   0  0  0  0  0  0  0  0  0  0  0  0
    2.9540   58.0530   71.1870 C   0  0  0  0  0  0  0  0  0  0  0  0
    2.2480   57.3080   72.1390 C   0  0  0  0  0  0  0  0  0  0  0  0
    2.1310   57.7560   73.4640 C   0  0  0  0  0  0  0  0  0  0  0  0
    1.0590   62.2480   77.1110 C   0  0  0  0  0  0  0  0  0  0  0  0
    1.2600   62.3770   78.4350 N   0  0  0  0  0  0  0  0  0  0  0  0
    2.1290   61.3780   78.7380 N   0  0  0  0  0  0  0  0  0  0  0  0
    2.4580   60.6170   77.6600 C   0  0  0  0  0  0  0  0  0  0  0  0
    1.7800   61.1540   76.6070 C   0  0  0  0  0  0  0  0  0  0  0  0
    1.8360   60.6440   75.3100 N   0  0  0  0  0  0  0  0  0  0  0  0
    2.6270   59.6090   75.1840 C   0  0  0  0  0  0  0  0  0  0  0  0
    3.3530   59.0490   76.2270 N   0  0  0  0  0  0  0  0  0  0  0  0
    3.3050   59.4890   77.5310 C   0  0  0  0  0  0  0  0  0  0  0  0
    3.9150   58.9390   78.4400 O   0  0  0  0  0  0  0  0  0  0  0  0
    2.5990   61.2170   80.0940 C   0  0  0  0  0  0  0  0  0  0  0  0
    0.1740   63.1930   76.3770 C   0  0  0  0  0  0  0  0  0  0  0  0
    0.3640   64.1800   74.0650 C   0  0  0  0  0  0  0  0  0  0  0  0
    0.9600   64.1350   75.4620 C   0  0  0  0  0  0  0  0  0  0  0  0
    4.4500   60.2230   70.3710 S   0  0  0  0  0  6  0  0  0  0  0  0
    4.3000   59.5920   69.0800 O   0  0  0  0  0  0  0  0  0  0  0  0
    5.7440   60.5410   70.9260 O   0  0  0  0  0  0  0  0  0  0  0  0
    3.5510   61.6660   70.3060 N   0  0  0  0  0  0  0  0  0  0  0  0
    2.3410   61.7050   69.4440 C   0  0  0  0  0  0  0  0  0  0  0  0
    1.3890   62.8060   69.9480 C   0  0  0  0  0  0  0  0  0  0  0  0
    2.1130   64.1530   69.9890 N   0  0  0  0  0  4  0  0  0  0  0  0
    3.3810   64.0720   70.8410 C   0  0  0  0  0  0  0  0  0  0  0  0
    4.3030   62.9460   70.3350 C   0  0  0  0  0  0  0  0  0  0  0  0
    1.2030   65.2560   70.4480 C   0  0  0  0  0  0  0  0  0  0  0  0
    1.4240   57.0920   74.4310 O   0  0  0  0  0  0  0  0  0  0  0  0
    1.0900   55.7190   74.2070 C   0  0  0  0  0  0  0  0  0  0  0  0
    2.1650   54.8690   74.8590 C   0  0  0  0  0  0  0  0  0  0  0  0
    4.0589   60.5788   73.1896 H   0  0  0  0  0  0  0  0  0  0  0  0
    3.0200   57.7008   70.1470 H   0  0  0  0  0  0  0  0  0  0  0  0
    1.7783   56.3580   71.8444 H   0  0  0  0  0  0  0  0  0  0  0  0
    3.9682   58.2517   76.0109 H   0  0  0  0  0  0  0  0  0  0  0  0
    1.7971   61.4917   80.7951 H   0  0  0  0  0  0  0  0  0  0  0  0
    2.8879   60.1687   80.2599 H   0  0  0  0  0  0  0  0  0  0  0  0
    3.4700   61.8680   80.2599 H   0  0  0  0  0  0  0  0  0  0  0  0
   -0.5320   62.6129   75.7646 H   0  0  0  0  0  0  0  0  0  0  0  0
   -0.3512   63.8089   77.1219 H   0  0  0  0  0  0  0  0  0  0  0  0
   -0.7306   64.2626   74.1358 H   0  0  0  0  0  0  0  0  0  0  0  0
    0.7632   65.0506   73.5239 H   0  0  0  0  0  0  0  0  0  0  0  0
    0.6279   63.2594   73.5239 H   0  0  0  0  0  0  0  0  0  0  0  0
    2.0002   63.7834   75.3957 H   0  0  0  0  0  0  0  0  0  0  0  0
    0.9155   65.1477   75.8890 H   0  0  0  0  0  0  0  0  0  0  0  0
    2.6362   61.9217   68.4067 H   0  0  0  0  0  0  0  0  0  0  0  0
    1.8304   60.7315   69.4833 H   0  0  0  0  0  0  0  0  0  0  0  0
    0.5257   62.8781   69.2701 H   0  0  0  0  0  0  0  0  0  0  0  0
    1.0497   62.5501   70.9626 H   0  0  0  0  0  0  0  0  0  0  0  0
    2.4011   64.3821   69.0270 H   0  0  0  0  0  0  0  0  0  0  0  0
    3.9167   65.0310   70.7840 H   0  0  0  0  0  0  0  0  0  0  0  0
    3.0961   63.8566   71.8814 H   0  0  0  0  0  0  0  0  0  0  0  0
    4.6546   63.1878   69.3211 H   0  0  0  0  0  0  0  0  0  0  0  0
    5.1668   62.8486   71.0091 H   0  0  0  0  0  0  0  0  0  0  0  0
    1.1825   65.2808   71.5475 H   0  0  0  0  0  0  0  0  0  0  0  0
    1.5728   66.2191   70.0663 H   0  0  0  0  0  0  0  0  0  0  0  0
    0.1872   65.0760   70.0663 H   0  0  0  0  0  0  0  0  0  0  0  0
    0.1112   55.4938   74.6556 H   0  0  0  0  0  0  0  0  0  0  0  0
    1.0336   55.5077   73.1290 H   0  0  0  0  0  0  0  0  0  0  0  0
    2.0752   54.9400   75.9530 H   0  0  0  0  0  0  0  0  0  0  0  0
    2.0424   53.8209   74.5483 H   0  0  0  0  0  0  0  0  0  0  0  0
    3.1565   55.2300   74.5483 H   0  0  0  0  0  0  0  0  0  0  0  0
  2  1  2  0
  3  2  1  0
  4  3  2  0
  5  4  1  0
  6  5  2  0
  6  1  1  0
  8  7  2  0
  9  8  1  0
 10  9  1  0
 11 10  2  0
 11  7  1  0
 12 11  1  0
 13 12  2  0
 13  1  1  0
 14 13  1  0
 15 14  1  0
 15 10  1  0
 16 15  2  0
 17  9  1  0
 18  7  1  0
 20 19  1  0
 20 18  1  0
 21  3  1  0
 22 21  2  0
 23 21  2  0
 24 21  1  0
 25 24  1  0
 26 25  1  0
 27 26  1  0
 28 27  1  0
 29 28  1  0
 29 24  1  0
 30 27  1  0
 31  6  1  0
 32 31  1  0
 33 32  1  0
  2 34  1  0
  4 35  1  0
  5 36  1  0
 14 37  1  0
 17 38  1  0
 17 39  1  0
 17 40  1  0
 18 41  1  0
 18 42  1  0
 19 43  1  0
 19 44  1  0
 19 45  1  0
 20 46  1  0
 20 47  1  0
 25 48  1  0
 25 49  1  0
 26 50  1  0
 26 51  1  0
 27 52  1  0
 28 53  1  0
 28 54  1  0
 29 55  1  0
 29 56  1  0
 30 57  1  0
 30 58  1  0
 30 59  1  0
 32 60  1  0
 32 61  1  0
 33 62  1  0
 33 63  1  0
 33 64  1  0
M  CHG  1  27   1
M  END
>  <score>  (7) 
-7.354

$$$$
=
     RDKit          3D

 64 67  0  0  0  0  0  0  0  0999 V2000
    1.1530   62.5710   71.8980 C   0  0  0  0  0  0  0  0  0  0  0  0
    1.9630   61.4440   71.6830 C   0  0  0  0  0  0  0  0  0  0  0  0
    2.9050   61.4330   70.6580 C   0  0  0  0  0  0  0  0  0  0  0  0
    2.9940   62.5080   69.7780 C   0  0  0  0  0  0  0  0  0  0  0  0
    2.1520   63.6130   69.9480 C   0  0  0  0  0  0  0  0  0  0  0  0
    1.2340   63.6650   71.0100 C   0  0  0  0  0  0  0  0  0  0  0  0
    0.0140   63.4840   76.6170 C   0  0  0  0  0  0  0  0  0  0  0  0
   -1.0970   63.2350   77.3320 N   0  0  0  0  0  0  0  0  0  0  0  0
   -1.9150   62.5890   76.4630 N   0  0  0  0  0  0  0  0  0  0  0  0
   -1.3680   62.4470   75.2270 C   0  0  0  0  0  0  0  0  0  0  0  0
   -0.1330   63.0170   75.3010 C   0  0  0  0  0  0  0  0  0  0  0  0
    0.7510   63.0930   74.2240 N   0  0  0  0  0  0  0  0  0  0  0  0
    0.2960   62.5390   73.1290 C   0  0  0  0  0  0  0  0  0  0  0  0
   -0.9460   61.9270   73.0200 N   0  0  0  0  0  0  0  0  0  0  0  0
   -1.8690   61.8580   74.0400 C   0  0  0  0  0  0  0  0  0  0  0  0
   -2.9790   61.3590   73.8970 O   0  0  0  0  0  0  0  0  0  0  0  0
   -3.2170   62.1380   76.8960 C   0  0  0  0  0  0  0  0  0  0  0  0
    1.1850   64.1650   77.2340 C   0  0  0  0  0  0  0  0  0  0  0  0
    2.4990   64.5680   79.3480 C   0  0  0  0  0  0  0  0  0  0  0  0
    1.3950   63.7530   78.6930 C   0  0  0  0  0  0  0  0  0  0  0  0
    3.9800   60.0300   70.4840 S   0  0  0  0  0  6  0  0  0  0  0  0
    5.3030   60.4290   70.9050 O   0  0  0  0  0  0  0  0  0  0  0  0
    3.7300   59.4370   69.1910 O   0  0  0  0  0  0  0  0  0  0  0  0
    3.4100   58.9450   71.6640 N   0  0  0  0  0  0  0  0  0  0  0  0
    4.0300   58.9810   73.0140 C   0  0  0  0  0  0  0  0  0  0  0  0
    3.0470   58.3970   74.0450 C   0  0  0  0  0  0  0  0  0  0  0  0
    2.6320   56.9820   73.6380 N   0  0  0  0  0  4  0  0  0  0  0  0
    2.0440   56.9640   72.2250 C   0  0  0  0  0  0  0  0  0  0  0  0
    3.0350   57.5800   71.2180 C   0  0  0  0  0  0  0  0  0  0  0  0
    1.6960   56.3700   74.6390 C   0  0  0  0  0  0  0  0  0  0  0  0
    0.4100   64.7320   71.2510 O   0  0  0  0  0  0  0  0  0  0  0  0
    0.6710   65.9600   70.5660 C   0  0  0  0  0  0  0  0  0  0  0  0
   -0.3750   66.1130   69.4750 C   0  0  0  0  0  0  0  0  0  0  0  0
    1.8521   60.5617   72.3306 H   0  0  0  0  0  0  0  0  0  0  0  0
    3.7220   62.4891   68.9536 H   0  0  0  0  0  0  0  0  0  0  0  0
    2.2099   64.4528   69.2399 H   0  0  0  0  0  0  0  0  0  0  0  0
   -1.1930   61.4966   72.1174 H   0  0  0  0  0  0  0  0  0  0  0  0
   -3.2537   62.1253   77.9953 H   0  0  0  0  0  0  0  0  0  0  0  0
   -3.9884   62.8213   76.5112 H   0  0  0  0  0  0  0  0  0  0  0  0
   -3.4005   61.1240   76.5112 H   0  0  0  0  0  0  0  0  0  0  0  0
    2.0872   63.9065   76.6602 H   0  0  0  0  0  0  0  0  0  0  0  0
    0.9928   65.2479   77.2147 H   0  0  0  0  0  0  0  0  0  0  0  0
    2.4058   64.4992   80.4419 H   0  0  0  0  0  0  0  0  0  0  0  0
    3.4784   64.1746   79.0380 H   0  0  0  0  0  0  0  0  0  0  0  0
    2.4115   65.6198   79.0380 H   0  0  0  0  0  0  0  0  0  0  0  0
    1.6679   62.6880   78.7281 H   0  0  0  0  0  0  0  0  0  0  0  0
    0.4591   63.9353   79.2416 H   0  0  0  0  0  0  0  0  0  0  0  0
    4.9541   58.3843   73.0093 H   0  0  0  0  0  0  0  0  0  0  0  0
    4.2671   60.0213   73.2813 H   0  0  0  0  0  0  0  0  0  0  0  0
    3.5327   58.3635   75.0314 H   0  0  0  0  0  0  0  0  0  0  0  0
    2.1518   59.0348   74.0882 H   0  0  0  0  0  0  0  0  0  0  0  0
    3.4812   56.3992   73.6267 H   0  0  0  0  0  0  0  0  0  0  0  0
    1.8326   55.9243   71.9345 H   0  0  0  0  0  0  0  0  0  0  0  0
    1.1172   57.5565   72.2186 H   0  0  0  0  0  0  0  0  0  0  0  0
    3.9366   56.9525   71.1604 H   0  0  0  0  0  0  0  0  0  0  0  0
    2.5626   57.6354   70.2262 H   0  0  0  0  0  0  0  0  0  0  0  0
    2.0463   56.5990   75.6563 H   0  0  0  0  0  0  0  0  0  0  0  0
    0.6864   56.7829   74.4972 H   0  0  0  0  0  0  0  0  0  0  0  0
    1.6694   55.2795   74.4972 H   0  0  0  0  0  0  0  0  0  0  0  0
    0.6041   66.8028   71.2697 H   0  0  0  0  0  0  0  0  0  0  0  0
    1.6816   65.9510   70.1316 H   0  0  0  0  0  0  0  0  0  0  0  0
   -1.3644   66.2577   69.9334 H   0  0  0  0  0  0  0  0  0  0  0  0
   -0.1290   66.9847   68.8508 H   0  0  0  0  0  0  0  0  0  0  0  0
   -0.3890   65.2073   68.8508 H   0  0  0  0  0  0  0  0  0  0  0  0
  2  1  2  0
  3  2  1  0
  4  3  2  0
  5  4  1  0
  6  5  2  0
  6  1  1  0
  8  7  2  0
  9  8  1  0
 10  9  1  0
 11 10  2  0
 11  7  1  0
 12 11  1  0
 13 12  2  0
 13  1  1  0
 14 13  1  0
 15 14  1  0
 15 10  1  0
 16 15  2  0
 17  9  1  0
 18  7  1  0
 20 19  1  0
 20 18  1  0
 21  3  1  0
 22 21  2  0
 23 21  2  0
 24 21  1  0
 25 24  1  0
 26 25  1  0
 27 26  1  0
 28 27  1  0
 29 28  1  0
 29 24  1  0
 30 27  1  0
 31  6  1  0
 32 31  1  0
 33 32  1  0
  2 34  1  0
  4 35  1  0
  5 36  1  0
 14 37  1  0
 17 38  1  0
 17 39  1  0
 17 40  1  0
 18 41  1  0
 18 42  1  0
 19 43  1  0
 19 44  1  0
 19 45  1  0
 20 46  1  0
 20 47  1  0
 25 48  1  0
 25 49  1  0
 26 50  1  0
 26 51  1  0
 27 52  1  0
 28 53  1  0
 28 54  1  0
 29 55  1  0
 29 56  1  0
 30 57  1  0
 30 58  1  0
 30 59  1  0
 32 60  1  0
 32 61  1  0
 33 62  1  0
 33 63  1  0
 33 64  1  0
M  CHG  1  27   1
M  END
>  <score>  (8) 
-7.33

$$$$
=
     RDKit          3D

 64 67  0  0  0  0  0  0  0  0999 V2000
    0.0060   58.8420   73.9200 C   0  0  0  0  0  0  0  0  0  0  0  0
    1.1620   59.3800   73.3310 C   0  0  0  0  0  0  0  0  0  0  0  0
    2.0710   58.5560   72.6740 C   0  0  0  0  0  0  0  0  0  0  0  0
    1.8870   57.1750   72.6680 C   0  0  0  0  0  0  0  0  0  0  0  0
    0.7680   56.6240   73.3020 C   0  0  0  0  0  0  0  0  0  0  0  0
   -0.1880   57.4450   73.9220 C   0  0  0  0  0  0  0  0  0  0  0  0
   -1.4410   62.9870   76.1840 C   0  0  0  0  0  0  0  0  0  0  0  0
   -2.6620   63.5150   76.3880 N   0  0  0  0  0  0  0  0  0  0  0  0
   -3.5130   62.6030   75.8510 N   0  0  0  0  0  0  0  0  0  0  0  0
   -2.8700   61.5400   75.2980 C   0  0  0  0  0  0  0  0  0  0  0  0
   -1.5410   61.7670   75.4960 C   0  0  0  0  0  0  0  0  0  0  0  0
   -0.5350   60.9070   75.0550 N   0  0  0  0  0  0  0  0  0  0  0  0
   -0.9840   59.8370   74.4510 C   0  0  0  0  0  0  0  0  0  0  0  0
   -2.3300   59.5580   74.2520 N   0  0  0  0  0  0  0  0  0  0  0  0
   -3.3600   60.3890   74.6340 C   0  0  0  0  0  0  0  0  0  0  0  0
   -4.5350   60.1400   74.3960 O   0  0  0  0  0  0  0  0  0  0  0  0
   -4.9390   62.8260   75.9070 C   0  0  0  0  0  0  0  0  0  0  0  0
   -0.2170   63.6840   76.6650 C   0  0  0  0  0  0  0  0  0  0  0  0
   -0.0980   65.3000   74.7340 C   0  0  0  0  0  0  0  0  0  0  0  0
    0.6360   64.2220   75.5140 C   0  0  0  0  0  0  0  0  0  0  0  0
    3.4670   59.2850   71.8530 S   0  0  0  0  0  6  0  0  0  0  0  0
    3.6450   58.6070   70.5900 O   0  0  0  0  0  0  0  0  0  0  0  0
    4.5350   59.4080   72.8180 O   0  0  0  0  0  0  0  0  0  0  0  0
    2.9310   60.8570   71.4810 N   0  0  0  0  0  0  0  0  0  0  0  0
    3.0380   61.3240   70.0740 C   0  0  0  0  0  0  0  0  0  0  0  0
    2.0200   62.4530   69.8310 C   0  0  0  0  0  0  0  0  0  0  0  0
    2.2390   63.5870   70.8340 N   0  0  0  0  0  4  0  0  0  0  0  0
    2.1740   63.0710   72.2730 C   0  0  0  0  0  0  0  0  0  0  0  0
    3.1810   61.9230   72.4830 C   0  0  0  0  0  0  0  0  0  0  0  0
    1.2800   64.7200   70.6050 C   0  0  0  0  0  0  0  0  0  0  0  0
   -1.3220   56.9680   74.5250 O   0  0  0  0  0  0  0  0  0  0  0  0
   -1.1940   55.8950   75.4620 C   0  0  0  0  0  0  0  0  0  0  0  0
   -0.6790   56.4780   76.7660 C   0  0  0  0  0  0  0  0  0  0  0  0
    1.3506   60.4621   73.3895 H   0  0  0  0  0  0  0  0  0  0  0  0
    2.6171   56.5217   72.1678 H   0  0  0  0  0  0  0  0  0  0  0  0
    0.6352   55.5321   73.3150 H   0  0  0  0  0  0  0  0  0  0  0  0
   -2.5740   58.6713   73.7882 H   0  0  0  0  0  0  0  0  0  0  0  0
   -5.2613   62.8764   76.9575 H   0  0  0  0  0  0  0  0  0  0  0  0
   -5.1821   63.7731   75.4031 H   0  0  0  0  0  0  0  0  0  0  0  0
   -5.4596   61.9984   75.4031 H   0  0  0  0  0  0  0  0  0  0  0  0
   -0.5182   64.5260   77.3055 H   0  0  0  0  0  0  0  0  0  0  0  0
    0.3897   62.9534   77.2202 H   0  0  0  0  0  0  0  0  0  0  0  0
   -0.5747   66.0001   75.4358 H   0  0  0  0  0  0  0  0  0  0  0  0
    0.6171   65.8456   74.1008 H   0  0  0  0  0  0  0  0  0  0  0  0
   -0.8677   64.8346   74.1008 H   0  0  0  0  0  0  0  0  0  0  0  0
    0.8821   63.3934   74.8337 H   0  0  0  0  0  0  0  0  0  0  0  0
    1.5493   64.6643   75.9385 H   0  0  0  0  0  0  0  0  0  0  0  0
    4.0548   61.7005   69.8886 H   0  0  0  0  0  0  0  0  0  0  0  0
    2.8279   60.4868   69.3921 H   0  0  0  0  0  0  0  0  0  0  0  0
    2.1457   62.8419   68.8098 H   0  0  0  0  0  0  0  0  0  0  0  0
    1.0033   62.0529   69.9581 H   0  0  0  0  0  0  0  0  0  0  0  0
    3.1870   63.9599   70.6818 H   0  0  0  0  0  0  0  0  0  0  0  0
    2.4139   63.8932   72.9632 H   0  0  0  0  0  0  0  0  0  0  0  0
    1.1596   62.6936   72.4692 H   0  0  0  0  0  0  0  0  0  0  0  0
    4.2049   62.3066   72.3627 H   0  0  0  0  0  0  0  0  0  0  0  0
    3.0610   61.5103   73.4956 H   0  0  0  0  0  0  0  0  0  0  0  0
    0.9437   65.1173   71.5741 H   0  0  0  0  0  0  0  0  0  0  0  0
    1.7825   65.5165   70.0366 H   0  0  0  0  0  0  0  0  0  0  0  0
    0.4114   64.3560   70.0366 H   0  0  0  0  0  0  0  0  0  0  0  0
   -2.1733   55.4212   75.6247 H   0  0  0  0  0  0  0  0  0  0  0  0
   -0.4993   55.1321   75.0807 H   0  0  0  0  0  0  0  0  0  0  0  0
   -1.1443   55.9513   77.6122 H   0  0  0  0  0  0  0  0  0  0  0  0
    0.4133   56.3579   76.8152 H   0  0  0  0  0  0  0  0  0  0  0  0
   -0.9329   57.5472   76.8152 H   0  0  0  0  0  0  0  0  0  0  0  0
  2  1  2  0
  3  2  1  0
  4  3  2  0
  5  4  1  0
  6  5  2  0
  6  1  1  0
  8  7  2  0
  9  8  1  0
 10  9  1  0
 11 10  2  0
 11  7  1  0
 12 11  1  0
 13 12  2  0
 13  1  1  0
 14 13  1  0
 15 14  1  0
 15 10  1  0
 16 15  2  0
 17  9  1  0
 18  7  1  0
 20 19  1  0
 20 18  1  0
 21  3  1  0
 22 21  2  0
 23 21  2  0
 24 21  1  0
 25 24  1  0
 26 25  1  0
 27 26  1  0
 28 27  1  0
 29 28  1  0
 29 24  1  0
 30 27  1  0
 31  6  1  0
 32 31  1  0
 33 32  1  0
  2 34  1  0
  4 35  1  0
  5 36  1  0
 14 37  1  0
 17 38  1  0
 17 39  1  0
 17 40  1  0
 18 41  1  0
 18 42  1  0
 19 43  1  0
 19 44  1  0
 19 45  1  0
 20 46  1  0
 20 47  1  0
 25 48  1  0
 25 49  1  0
 26 50  1  0
 26 51  1  0
 27 52  1  0
 28 53  1  0
 28 54  1  0
 29 55  1  0
 29 56  1  0
 30 57  1  0
 30 58  1  0
 30 59  1  0
 32 60  1  0
 32 61  1  0
 33 62  1  0
 33 63  1  0
 33 64  1  0
M  CHG  1  27   1
M  END
>  <score>  (9) 
-7.268

$$$$
