=
     RDKit          3D

 49 50  0  0  0  0  0  0  0  0999 V2000
    5.1120   69.9820   65.6170 C   0  0  0  0  0  0  0  0  0  0  0  0
    5.2490   69.7190   64.2530 C   0  0  0  0  0  0  0  0  0  0  0  0
    4.2680   69.0080   63.5530 C   0  0  0  0  0  0  0  0  0  0  0  0
    3.1300   68.5580   64.2180 C   0  0  0  0  0  0  0  0  0  0  0  0
    2.9930   68.8170   65.5850 C   0  0  0  0  0  0  0  0  0  0  0  0
    3.9770   69.5250   66.2840 C   0  0  0  0  0  0  0  0  0  0  0  0
    6.1440   70.6850   66.1690 O   0  0  0  0  0  0  0  0  0  0  0  0
    6.7200   70.1720   67.3700 C   0  0  0  0  0  0  0  0  0  0  0  0
    6.6740   71.2800   68.4200 C   0  0  0  0  0  0  0  0  0  0  0  0
    7.0890   70.3510   70.7230 C   0  0  0  0  0  0  0  0  0  0  0  0
    7.7030   71.0550   69.5240 C   0  0  0  0  0  0  0  0  0  0  0  0
    2.0880   67.8720   63.6580 O   0  0  0  0  0  0  0  0  0  0  0  0
    1.2830   68.5760   62.7140 C   0  0  0  0  0  0  0  0  0  0  0  0
    0.0850   69.1790   63.4470 C   0  0  0  0  0  0  0  0  0  0  0  0
   -0.4690   68.3460   64.6050 C   0  0  0  0  0  0  0  0  0  0  0  0
   -1.1210   69.1810   65.6820 N   0  0  0  0  0  4  0  0  0  0  0  0
   -0.4460   69.0300   67.0440 C   0  0  0  0  0  0  0  0  0  0  0  0
   -0.8710   67.7180   67.7140 C   0  0  0  0  0  0  0  0  0  0  0  0
   -2.2960   67.6460   67.8410 O   0  0  0  0  0  0  0  0  0  0  0  0
   -2.9490   67.7000   66.5670 C   0  0  0  0  0  0  0  0  0  0  0  0
   -2.6250   69.0080   65.8360 C   0  0  0  0  0  0  0  0  0  0  0  0
    6.1424   70.0764   63.7199 H   0  0  0  0  0  0  0  0  0  0  0  0
    4.3954   68.8048   62.4795 H   0  0  0  0  0  0  0  0  0  0  0  0
    2.0998   68.4595   66.1182 H   0  0  0  0  0  0  0  0  0  0  0  0
    3.8546   69.7207   67.3595 H   0  0  0  0  0  0  0  0  0  0  0  0
    6.1448   69.3017   67.7189 H   0  0  0  0  0  0  0  0  0  0  0  0
    7.7578   69.8533   67.1928 H   0  0  0  0  0  0  0  0  0  0  0  0
    6.8809   72.2433   67.9309 H   0  0  0  0  0  0  0  0  0  0  0  0
    5.6738   71.2769   68.8779 H   0  0  0  0  0  0  0  0  0  0  0  0
    7.4786   70.7977   71.6496 H   0  0  0  0  0  0  0  0  0  0  0  0
    5.9951   70.4632   70.6936 H   0  0  0  0  0  0  0  0  0  0  0  0
    7.3489   69.2825   70.6936 H   0  0  0  0  0  0  0  0  0  0  0  0
    8.1003   72.0289   69.8462 H   0  0  0  0  0  0  0  0  0  0  0  0
    8.5052   70.4179   69.1233 H   0  0  0  0  0  0  0  0  0  0  0  0
    1.8743   69.3781   62.2482 H   0  0  0  0  0  0  0  0  0  0  0  0
    0.9355   67.8875   61.9297 H   0  0  0  0  0  0  0  0  0  0  0  0
    0.3910   70.1561   63.8490 H   0  0  0  0  0  0  0  0  0  0  0  0
   -0.7242   69.2374   62.7041 H   0  0  0  0  0  0  0  0  0  0  0  0
   -1.2171   67.6457   64.2050 H   0  0  0  0  0  0  0  0  0  0  0  0
    0.3815   67.8236   65.0673 H   0  0  0  0  0  0  0  0  0  0  0  0
   -0.9772   70.1388   65.3317 H   0  0  0  0  0  0  0  0  0  0  0  0
    0.6456   69.0297   66.9085 H   0  0  0  0  0  0  0  0  0  0  0  0
   -0.7494   69.8705   67.6855 H   0  0  0  0  0  0  0  0  0  0  0  0
   -0.5208   66.8723   67.1039 H   0  0  0  0  0  0  0  0  0  0  0  0
   -0.4265   67.6772   68.7194 H   0  0  0  0  0  0  0  0  0  0  0  0
   -2.6104   66.8521   65.9535 H   0  0  0  0  0  0  0  0  0  0  0  0
   -4.0359   67.6502   66.7290 H   0  0  0  0  0  0  0  0  0  0  0  0
   -3.0900   68.9892   64.8393 H   0  0  0  0  0  0  0  0  0  0  0  0
   -3.0187   69.8490   66.4256 H   0  0  0  0  0  0  0  0  0  0  0  0
  2  1  2  0
  3  2  1  0
  4  3  2  0
  5  4  1  0
  6  5  2  0
  6  1  1  0
  7  1  1  0
  8  7  1  0
  9  8  1  0
 11 10  1  0
 11  9  1  0
 12  4  1  0
 13 12  1  0
 14 13  1  0
 15 14  1  0
 16 15  1  0
 17 16  1  0
 18 17  1  0
 19 18  1  0
 20 19  1  0
 21 20  1  0
 21 16  1  0
  2 22  1  0
  3 23  1  0
  5 24  1  0
  6 25  1  0
  8 26  1  0
  8 27  1  0
  9 28  1  0
  9 29  1  0
 10 30  1  0
 10 31  1  0
 10 32  1  0
 11 33  1  0
 11 34  1  0
 13 35  1  0
 13 36  1  0
 14 37  1  0
 14 38  1  0
 15 39  1  0
 15 40  1  0
 16 41  1  0
 17 42  1  0
 17 43  1  0
 18 44  1  0
 18 45  1  0
 20 46  1  0
 20 47  1  0
 21 48  1  0
 21 49  1  0
M  CHG  1  16   1
M  END
>  <score>  (1) 
-7.825

$$$$
=
     RDKit          3D

 49 50  0  0  0  0  0  0  0  0999 V2000
    4.2130   69.8270   66.8980 C   0  0  0  0  0  0  0  0  0  0  0  0
    3.7510   70.0940   68.1880 C   0  0  0  0  0  0  0  0  0  0  0  0
    2.4970   69.6440   68.6130 C   0  0  0  0  0  0  0  0  0  0  0  0
    1.6920   68.9100   67.7450 C   0  0  0  0  0  0  0  0  0  0  0  0
    2.1520   68.6440   66.4510 C   0  0  0  0  0  0  0  0  0  0  0  0
    3.4050   69.0990   66.0270 C   0  0  0  0  0  0  0  0  0  0  0  0
    5.4530   70.3260   66.6210 O   0  0  0  0  0  0  0  0  0  0  0  0
    6.0150   71.2460   67.5570 C   0  0  0  0  0  0  0  0  0  0  0  0
    7.2740   70.6100   68.1400 C   0  0  0  0  0  0  0  0  0  0  0  0
    7.1250   70.3070   70.6360 C   0  0  0  0  0  0  0  0  0  0  0  0
    7.6210   71.1950   69.5060 C   0  0  0  0  0  0  0  0  0  0  0  0
    0.4590   68.3940   68.0320 O   0  0  0  0  0  0  0  0  0  0  0  0
    0.3590   66.9740   68.1280 C   0  0  0  0  0  0  0  0  0  0  0  0
    0.3030   66.5860   69.6060 C   0  0  0  0  0  0  0  0  0  0  0  0
    1.4970   65.7800   70.1220 C   0  0  0  0  0  0  0  0  0  0  0  0
    1.3560   64.2940   69.8950 N   0  0  0  0  0  4  0  0  0  0  0  0
    0.4510   63.6150   70.9220 C   0  0  0  0  0  0  0  0  0  0  0  0
    1.1960   63.4080   72.2440 C   0  0  0  0  0  0  0  0  0  0  0  0
    2.3940   62.6490   72.0430 O   0  0  0  0  0  0  0  0  0  0  0  0
    3.2990   63.3060   71.1480 C   0  0  0  0  0  0  0  0  0  0  0  0
    2.6580   63.5150   69.7710 C   0  0  0  0  0  0  0  0  0  0  0  0
    4.3836   70.6676   68.8814 H   0  0  0  0  0  0  0  0  0  0  0  0
    2.1469   69.8693   69.6312 H   0  0  0  0  0  0  0  0  0  0  0  0
    1.5201   68.0695   65.7577 H   0  0  0  0  0  0  0  0  0  0  0  0
    3.7524   68.8821   65.0061 H   0  0  0  0  0  0  0  0  0  0  0  0
    6.2725   72.1867   67.0482 H   0  0  0  0  0  0  0  0  0  0  0  0
    5.2928   71.4695   68.3561 H   0  0  0  0  0  0  0  0  0  0  0  0
    7.1099   69.5276   68.2470 H   0  0  0  0  0  0  0  0  0  0  0  0
    8.1106   70.8161   67.4561 H   0  0  0  0  0  0  0  0  0  0  0  0
    7.3813   70.7658   71.6023 H   0  0  0  0  0  0  0  0  0  0  0  0
    6.0333   70.1943   70.5616 H   0  0  0  0  0  0  0  0  0  0  0  0
    7.6016   69.3184   70.5616 H   0  0  0  0  0  0  0  0  0  0  0  0
    7.1535   72.1864   69.5992 H   0  0  0  0  0  0  0  0  0  0  0  0
    8.7159   71.2691   69.5811 H   0  0  0  0  0  0  0  0  0  0  0  0
   -0.5551   66.6320   67.6205 H   0  0  0  0  0  0  0  0  0  0  0  0
    1.2305   66.5034   67.6494 H   0  0  0  0  0  0  0  0  0  0  0  0
    0.2382   67.5115   70.1970 H   0  0  0  0  0  0  0  0  0  0  0  0
   -0.5729   65.9292   69.7125 H   0  0  0  0  0  0  0  0  0  0  0  0
    2.4032   66.1280   69.6046 H   0  0  0  0  0  0  0  0  0  0  0  0
    1.5536   65.9401   71.2088 H   0  0  0  0  0  0  0  0  0  0  0  0
    0.9098   64.2588   68.9673 H   0  0  0  0  0  0  0  0  0  0  0  0
   -0.4317   64.2468   71.0996 H   0  0  0  0  0  0  0  0  0  0  0  0
    0.1443   62.6339   70.5305 H   0  0  0  0  0  0  0  0  0  0  0  0
    1.4581   64.3890   72.6670 H   0  0  0  0  0  0  0  0  0  0  0  0
    0.5412   62.8546   72.9331 H   0  0  0  0  0  0  0  0  0  0  0  0
    3.5736   64.2845   71.5688 H   0  0  0  0  0  0  0  0  0  0  0  0
    4.1909   62.6738   71.0262 H   0  0  0  0  0  0  0  0  0  0  0  0
    3.3544   64.0757   69.1301 H   0  0  0  0  0  0  0  0  0  0  0  0
    2.4403   62.5312   69.3298 H   0  0  0  0  0  0  0  0  0  0  0  0
  2  1  2  0
  3  2  1  0
  4  3  2  0
  5  4  1  0
  6  5  2  0
  6  1  1  0
  7  1  1  0
  8  7  1  0
  9  8  1  0
 11 10  1  0
 11  9  1  0
 12  4  1  0
 13 12  1  0
 14 13  1  0
 15 14  1  0
 16 15  1  0
 17 16  1  0
 18 17  1  0
 19 18  1  0
 20 19  1  0
 21 20  1  0
 21 16  1  0
  2 22  1  0
  3 23  1  0
  5 24  1  0
  6 25  1  0
  8 26  1  0
  8 27  1  0
  9 28  1  0
  9 29  1  0
 10 30  1  0
 10 31  1  0
 10 32  1  0
 11 33  1  0
 11 34  1  0
 13 35  1  0
 13 36  1  0
 14 37  1  0
 14 38  1  0
 15 39  1  0
 15 40  1  0
 16 41  1  0
 17 42  1  0
 17 43  1  0
 18 44  1  0
 18 45  1  0
 20 46  1  0
 20 47  1  0
 21 48  1  0
 21 49  1  0
M  CHG  1  16   1
M  END
>  <score>  (2) 
-7.267

$$$$
=
     RDKit          3D

 49 50  0  0  0  0  0  0  0  0999 V2000
    2.6480   62.3700   72.4490 C   0  0  0  0  0  0  0  0  0  0  0  0
    3.3270   62.9370   71.3690 C   0  0  0  0  0  0  0  0  0  0  0  0
    2.6680   63.7750   70.4630 C   0  0  0  0  0  0  0  0  0  0  0  0
    1.3160   64.0590   70.6380 C   0  0  0  0  0  0  0  0  0  0  0  0
    0.6340   63.4890   71.7180 C   0  0  0  0  0  0  0  0  0  0  0  0
    1.2940   62.6480   72.6200 C   0  0  0  0  0  0  0  0  0  0  0  0
    3.4160   61.5750   73.2500 O   0  0  0  0  0  0  0  0  0  0  0  0
    3.2560   60.1620   73.1220 C   0  0  0  0  0  0  0  0  0  0  0  0
    4.1660   59.6900   71.9910 C   0  0  0  0  0  0  0  0  0  0  0  0
    3.5780   59.6870   69.5420 C   0  0  0  0  0  0  0  0  0  0  0  0
    3.3780   58.9990   70.8830 C   0  0  0  0  0  0  0  0  0  0  0  0
    0.5550   64.8730   69.8450 O   0  0  0  0  0  0  0  0  0  0  0  0
    0.3730   66.2180   70.2840 C   0  0  0  0  0  0  0  0  0  0  0  0
    1.3540   67.1160   69.5300 C   0  0  0  0  0  0  0  0  0  0  0  0
    0.7550   67.9260   68.3770 C   0  0  0  0  0  0  0  0  0  0  0  0
    0.1270   67.0670   67.3070 N   0  0  0  0  0  4  0  0  0  0  0  0
    0.7900   67.2340   65.9410 C   0  0  0  0  0  0  0  0  0  0  0  0
    0.3200   68.5280   65.2680 C   0  0  0  0  0  0  0  0  0  0  0  0
   -1.1070   68.5530   65.1470 O   0  0  0  0  0  0  0  0  0  0  0  0
   -1.7530   68.4840   66.4230 C   0  0  0  0  0  0  0  0  0  0  0  0
   -1.3830   67.1900   67.1580 C   0  0  0  0  0  0  0  0  0  0  0  0
    4.3965   62.7216   71.2282 H   0  0  0  0  0  0  0  0  0  0  0  0
    3.2168   64.2087   69.6140 H   0  0  0  0  0  0  0  0  0  0  0  0
   -0.4352   63.7049   71.8598 H   0  0  0  0  0  0  0  0  0  0  0  0
    0.7439   62.2064   73.4640 H   0  0  0  0  0  0  0  0  0  0  0  0
    3.5399   59.6666   74.0622 H   0  0  0  0  0  0  0  0  0  0  0  0
    2.2077   59.9124   72.9013 H   0  0  0  0  0  0  0  0  0  0  0  0
    4.6884   60.5603   71.5672 H   0  0  0  0  0  0  0  0  0  0  0  0
    4.8809   58.9646   72.4066 H   0  0  0  0  0  0  0  0  0  0  0  0
    3.8816   60.7313   69.7073 H   0  0  0  0  0  0  0  0  0  0  0  0
    4.3610   59.1630   68.9742 H   0  0  0  0  0  0  0  0  0  0  0  0
    2.6361   59.6645   68.9742 H   0  0  0  0  0  0  0  0  0  0  0  0
    2.3084   59.0200   71.1391 H   0  0  0  0  0  0  0  0  0  0  0  0
    3.7408   57.9641   70.7965 H   0  0  0  0  0  0  0  0  0  0  0  0
   -0.6582   66.5392   70.0756 H   0  0  0  0  0  0  0  0  0  0  0  0
    0.5568   66.2874   71.3663 H   0  0  0  0  0  0  0  0  0  0  0  0
    1.7884   67.8238   70.2513 H   0  0  0  0  0  0  0  0  0  0  0  0
    2.0913   66.4399   69.0725 H   0  0  0  0  0  0  0  0  0  0  0  0
   -0.0166   68.5956   68.7847 H   0  0  0  0  0  0  0  0  0  0  0  0
    1.5795   68.4816   67.9064 H   0  0  0  0  0  0  0  0  0  0  0  0
    0.3044   66.1163   67.6614 H   0  0  0  0  0  0  0  0  0  0  0  0
    1.8817   67.2700   66.0710 H   0  0  0  0  0  0  0  0  0  0  0  0
    0.5105   66.3815   65.3045 H   0  0  0  0  0  0  0  0  0  0  0  0
    0.6451   69.3871   65.8732 H   0  0  0  0  0  0  0  0  0  0  0  0
    0.7587   68.5792   64.2606 H   0  0  0  0  0  0  0  0  0  0  0  0
   -1.4400   69.3452   67.0315 H   0  0  0  0  0  0  0  0  0  0  0  0
   -2.8416   68.4981   66.2655 H   0  0  0  0  0  0  0  0  0  0  0  0
   -1.8447   67.1975   68.1564 H   0  0  0  0  0  0  0  0  0  0  0  0
   -1.7509   66.3342   66.5730 H   0  0  0  0  0  0  0  0  0  0  0  0
  2  1  2  0
  3  2  1  0
  4  3  2  0
  5  4  1  0
  6  5  2  0
  6  1  1  0
  7  1  1  0
  8  7  1  0
  9  8  1  0
 11 10  1  0
 11  9  1  0
 12  4  1  0
 13 12  1  0
 14 13  1  0
 15 14  1  0
 16 15  1  0
 17 16  1  0
 18 17  1  0
 19 18  1  0
 20 19  1  0
 21 20  1  0
 21 16  1  0
  2 22  1  0
  3 23  1  0
  5 24  1  0
  6 25  1  0
  8 26  1  0
  8 27  1  0
  9 28  1  0
  9 29  1  0
 10 30  1  0
 10 31  1  0
 10 32  1  0
 11 33  1  0
 11 34  1  0
 13 35  1  0
 13 36  1  0
 14 37  1  0
 14 38  1  0
 15 39  1  0
 15 40  1  0
 16 41  1  0
 17 42  1  0
 17 43  1  0
 18 44  1  0
 18 45  1  0
 20 46  1  0
 20 47  1  0
 21 48  1  0
 21 49  1  0
M  CHG  1  16   1
M  END
>  <score>  (3) 
-7.218

$$$$
=
     RDKit          3D

 49 50  0  0  0  0  0  0  0  0999 V2000
    4.5760   69.2970   64.0710 C   0  0  0  0  0  0  0  0  0  0  0  0
    5.6630   69.7030   64.8460 C   0  0  0  0  0  0  0  0  0  0  0  0
    5.5240   69.9340   66.2190 C   0  0  0  0  0  0  0  0  0  0  0  0
    4.2860   69.7530   66.8310 C   0  0  0  0  0  0  0  0  0  0  0  0
    3.1950   69.3500   66.0550 C   0  0  0  0  0  0  0  0  0  0  0  0
    3.3360   69.1220   64.6820 C   0  0  0  0  0  0  0  0  0  0  0  0
    4.8570   69.1080   62.7490 O   0  0  0  0  0  0  0  0  0  0  0  0
    4.2600   67.9830   62.1030 C   0  0  0  0  0  0  0  0  0  0  0  0
    4.9580   66.7250   62.6150 C   0  0  0  0  0  0  0  0  0  0  0  0
    4.7080   64.5910   63.9290 C   0  0  0  0  0  0  0  0  0  0  0  0
    4.0000   65.8230   63.3860 C   0  0  0  0  0  0  0  0  0  0  0  0
    4.0130   69.9230   68.1600 O   0  0  0  0  0  0  0  0  0  0  0  0
    2.6680   70.2450   68.5080 C   0  0  0  0  0  0  0  0  0  0  0  0
    1.8310   68.9660   68.4610 C   0  0  0  0  0  0  0  0  0  0  0  0
    0.4250   69.1180   67.8760 C   0  0  0  0  0  0  0  0  0  0  0  0
    0.0450   67.9970   66.9380 N   0  0  0  0  0  4  0  0  0  0  0  0
   -0.5370   68.4960   65.6160 C   0  0  0  0  0  0  0  0  0  0  0  0
   -1.9970   68.9250   65.7980 C   0  0  0  0  0  0  0  0  0  0  0  0
   -2.7840   67.8520   66.3270 O   0  0  0  0  0  0  0  0  0  0  0  0
   -2.3090   67.4230   67.6090 C   0  0  0  0  0  0  0  0  0  0  0  0
   -0.8630   66.9230   67.5210 C   0  0  0  0  0  0  0  0  0  0  0  0
    6.6447   69.8437   64.3701 H   0  0  0  0  0  0  0  0  0  0  0  0
    6.3907   70.2579   66.8139 H   0  0  0  0  0  0  0  0  0  0  0  0
    2.2129   69.2104   66.5303 H   0  0  0  0  0  0  0  0  0  0  0  0
    2.4683   68.8047   64.0850 H   0  0  0  0  0  0  0  0  0  0  0  0
    3.1874   67.9396   62.3430 H   0  0  0  0  0  0  0  0  0  0  0  0
    4.3685   68.0649   61.0114 H   0  0  0  0  0  0  0  0  0  0  0  0
    5.3609   66.1666   61.7572 H   0  0  0  0  0  0  0  0  0  0  0  0
    5.7634   67.0333   63.2979 H   0  0  0  0  0  0  0  0  0  0  0  0
    4.6942   64.6150   65.0287 H   0  0  0  0  0  0  0  0  0  0  0  0
    4.1922   63.6860   63.5755 H   0  0  0  0  0  0  0  0  0  0  0  0
    5.7496   64.5811   63.5755 H   0  0  0  0  0  0  0  0  0  0  0  0
    3.1912   65.5026   62.7128 H   0  0  0  0  0  0  0  0  0  0  0  0
    3.5991   66.3933   64.2369 H   0  0  0  0  0  0  0  0  0  0  0  0
    2.6394   70.6693   69.5225 H   0  0  0  0  0  0  0  0  0  0  0  0
    2.2640   70.9841   67.8005 H   0  0  0  0  0  0  0  0  0  0  0  0
    2.3735   68.2285   67.8513 H   0  0  0  0  0  0  0  0  0  0  0  0
    1.6902   68.6594   69.5080 H   0  0  0  0  0  0  0  0  0  0  0  0
   -0.2978   69.1400   68.7049 H   0  0  0  0  0  0  0  0  0  0  0  0
    0.4136   70.0501   67.2920 H   0  0  0  0  0  0  0  0  0  0  0  0
    0.9528   67.5425   66.7642 H   0  0  0  0  0  0  0  0  0  0  0  0
    0.0514   69.3560   65.2635 H   0  0  0  0  0  0  0  0  0  0  0  0
   -0.4960   67.6799   64.8796 H   0  0  0  0  0  0  0  0  0  0  0  0
   -2.0378   69.7774   66.4921 H   0  0  0  0  0  0  0  0  0  0  0  0
   -2.4045   69.2082   64.8163 H   0  0  0  0  0  0  0  0  0  0  0  0
   -2.3549   68.2688   68.3108 H   0  0  0  0  0  0  0  0  0  0  0  0
   -2.9445   66.5962   67.9590 H   0  0  0  0  0  0  0  0  0  0  0  0
   -0.5100   66.6605   68.5292 H   0  0  0  0  0  0  0  0  0  0  0  0
   -0.8338   66.0413   66.8639 H   0  0  0  0  0  0  0  0  0  0  0  0
  2  1  2  0
  3  2  1  0
  4  3  2  0
  5  4  1  0
  6  5  2  0
  6  1  1  0
  7  1  1  0
  8  7  1  0
  9  8  1  0
 11 10  1  0
 11  9  1  0
 12  4  1  0
 13 12  1  0
 14 13  1  0
 15 14  1  0
 16 15  1  0
 17 16  1  0
 18 17  1  0
 19 18  1  0
 20 19  1  0
 21 20  1  0
 21 16  1  0
  2 22  1  0
  3 23  1  0
  5 24  1  0
  6 25  1  0
  8 26  1  0
  8 27  1  0
  9 28  1  0
  9 29  1  0
 10 30  1  0
 10 31  1  0
 10 32  1  0
 11 33  1  0
 11 34  1  0
 13 35  1  0
 13 36  1  0
 14 37  1  0
 14 38  1  0
 15 39  1  0
 15 40  1  0
 16 41  1  0
 17 42  1  0
 17 43  1  0
 18 44  1  0
 18 45  1  0
 20 46  1  0
 20 47  1  0
 21 48  1  0
 21 49  1  0
M  CHG  1  16   1
M  END
>  <score>  (4) 
-6.859

$$$$
=
     RDKit          3D

 49 50  0  0  0  0  0  0  0  0999 V2000
    5.0720   69.5940   64.4290 C   0  0  0  0  0  0  0  0  0  0  0  0
    6.1280   70.1660   65.1410 C   0  0  0  0  0  0  0  0  0  0  0  0
    6.0370   70.3770   66.5200 C   0  0  0  0  0  0  0  0  0  0  0  0
    4.8810   70.0080   67.2040 C   0  0  0  0  0  0  0  0  0  0  0  0
    3.8210   69.4370   66.4930 C   0  0  0  0  0  0  0  0  0  0  0  0
    3.9130   69.2310   65.1120 C   0  0  0  0  0  0  0  0  0  0  0  0
    5.2990   69.4470   63.0910 O   0  0  0  0  0  0  0  0  0  0  0  0
    5.5240   68.1240   62.6030 C   0  0  0  0  0  0  0  0  0  0  0  0
    4.2170   67.6200   61.9990 C   0  0  0  0  0  0  0  0  0  0  0  0
    2.0070   68.8230   61.8990 C   0  0  0  0  0  0  0  0  0  0  0  0
    3.4220   68.7490   61.3500 C   0  0  0  0  0  0  0  0  0  0  0  0
    4.6650   70.1370   68.5490 O   0  0  0  0  0  0  0  0  0  0  0  0
    3.4470   70.7600   68.9510 C   0  0  0  0  0  0  0  0  0  0  0  0
    2.3260   69.7210   68.9010 C   0  0  0  0  0  0  0  0  0  0  0  0
    1.1270   70.0850   68.0230 C   0  0  0  0  0  0  0  0  0  0  0  0
    0.0360   69.0420   68.0420 N   0  0  0  0  0  4  0  0  0  0  0  0
    0.5760   67.6120   68.0220 C   0  0  0  0  0  0  0  0  0  0  0  0
    1.0140   67.2210   66.6060 C   0  0  0  0  0  0  0  0  0  0  0  0
   -0.0650   67.3700   65.6760 O   0  0  0  0  0  0  0  0  0  0  0  0
   -0.5330   68.7220   65.6140 C   0  0  0  0  0  0  0  0  0  0  0  0
   -1.0450   69.1920   66.9800 C   0  0  0  0  0  0  0  0  0  0  0  0
    7.0461   70.4552   64.6085 H   0  0  0  0  0  0  0  0  0  0  0  0
    6.8769   70.8337   67.0640 H   0  0  0  0  0  0  0  0  0  0  0  0
    2.9036   69.1462   67.0258 H   0  0  0  0  0  0  0  0  0  0  0  0
    3.0703   68.7825   64.5655 H   0  0  0  0  0  0  0  0  0  0  0  0
    6.3105   68.1377   61.8341 H   0  0  0  0  0  0  0  0  0  0  0  0
    5.8488   67.4635   63.4204 H   0  0  0  0  0  0  0  0  0  0  0  0
    4.4462   66.8613   61.2362 H   0  0  0  0  0  0  0  0  0  0  0  0
    3.6073   67.1934   62.8091 H   0  0  0  0  0  0  0  0  0  0  0  0
    2.0397   68.8213   62.9985 H   0  0  0  0  0  0  0  0  0  0  0  0
    1.5254   69.7476   61.5480 H   0  0  0  0  0  0  0  0  0  0  0  0
    1.4316   67.9537   61.5480 H   0  0  0  0  0  0  0  0  0  0  0  0
    3.3754   68.5750   60.2648 H   0  0  0  0  0  0  0  0  0  0  0  0
    3.9284   69.6996   61.5736 H   0  0  0  0  0  0  0  0  0  0  0  0
    3.5491   71.1456   69.9761 H   0  0  0  0  0  0  0  0  0  0  0  0
    3.2132   71.5968   68.2764 H   0  0  0  0  0  0  0  0  0  0  0  0
    2.7521   68.7813   68.5196 H   0  0  0  0  0  0  0  0  0  0  0  0
    1.9368   69.6481   69.9273 H   0  0  0  0  0  0  0  0  0  0  0  0
    0.7072   71.0363   68.3819 H   0  0  0  0  0  0  0  0  0  0  0  0
    1.4909   70.1577   66.9875 H   0  0  0  0  0  0  0  0  0  0  0  0
   -0.4219   69.2246   68.9464 H   0  0  0  0  0  0  0  0  0  0  0  0
    1.4395   67.5420   68.6999 H   0  0  0  0  0  0  0  0  0  0  0  0
   -0.2205   66.9273   68.3488 H   0  0  0  0  0  0  0  0  0  0  0  0
    1.8481   67.8676   66.2960 H   0  0  0  0  0  0  0  0  0  0  0  0
    1.3267   66.1664   66.6143 H   0  0  0  0  0  0  0  0  0  0  0  0
    0.2939   69.3742   65.2965 H   0  0  0  0  0  0  0  0  0  0  0  0
   -1.3630   68.7717   64.8939 H   0  0  0  0  0  0  0  0  0  0  0  0
   -1.3387   70.2498   66.9109 H   0  0  0  0  0  0  0  0  0  0  0  0
   -1.9087   68.5734   67.2654 H   0  0  0  0  0  0  0  0  0  0  0  0
  2  1  2  0
  3  2  1  0
  4  3  2  0
  5  4  1  0
  6  5  2  0
  6  1  1  0
  7  1  1  0
  8  7  1  0
  9  8  1  0
 11 10  1  0
 11  9  1  0
 12  4  1  0
 13 12  1  0
 14 13  1  0
 15 14  1  0
 16 15  1  0
 17 16  1  0
 18 17  1  0
 19 18  1  0
 20 19  1  0
 21 20  1  0
 21 16  1  0
  2 22  1  0
  3 23  1  0
  5 24  1  0
  6 25  1  0
  8 26  1  0
  8 27  1  0
  9 28  1  0
  9 29  1  0
 10 30  1  0
 10 31  1  0
 10 32  1  0
 11 33  1  0
 11 34  1  0
 13 35  1  0
 13 36  1  0
 14 37  1  0
 14 38  1  0
 15 39  1  0
 15 40  1  0
 16 41  1  0
 17 42  1  0
 17 43  1  0
 18 44  1  0
 18 45  1  0
 20 46  1  0
 20 47  1  0
 21 48  1  0
 21 49  1  0
M  CHG  1  16   1
M  END
>  <score>  (5) 
-6.795

$$$$
=
     RDKit          3D

 49 50  0  0  0  0  0  0  0  0999 V2000
    0.4620   67.8150   67.3890 C   0  0  0  0  0  0  0  0  0  0  0  0
   -0.6870   67.0820   67.6930 C   0  0  0  0  0  0  0  0  0  0  0  0
   -0.7860   66.3600   68.8870 C   0  0  0  0  0  0  0  0  0  0  0  0
    0.2690   66.3740   69.7960 C   0  0  0  0  0  0  0  0  0  0  0  0
    1.4210   67.1050   69.4910 C   0  0  0  0  0  0  0  0  0  0  0  0
    1.5200   67.8230   68.2940 C   0  0  0  0  0  0  0  0  0  0  0  0
    0.4190   68.4690   66.1910 O   0  0  0  0  0  0  0  0  0  0  0  0
    1.6660   68.8100   65.5840 C   0  0  0  0  0  0  0  0  0  0  0  0
    1.5010   68.6780   64.0720 C   0  0  0  0  0  0  0  0  0  0  0  0
    0.0940   69.4940   62.1490 C   0  0  0  0  0  0  0  0  0  0  0  0
    0.1070   69.1010   63.6170 C   0  0  0  0  0  0  0  0  0  0  0  0
    0.2990   65.7340   71.0040 O   0  0  0  0  0  0  0  0  0  0  0  0
    0.2980   64.3080   70.9810 C   0  0  0  0  0  0  0  0  0  0  0  0
    1.6970   63.8100   71.3440 C   0  0  0  0  0  0  0  0  0  0  0  0
    1.9990   62.3570   70.9720 C   0  0  0  0  0  0  0  0  0  0  0  0
    3.1440   62.2160   69.9980 N   0  0  0  0  0  4  0  0  0  0  0  0
    3.3490   60.7790   69.5210 C   0  0  0  0  0  0  0  0  0  0  0  0
    4.0720   59.9540   70.5910 C   0  0  0  0  0  0  0  0  0  0  0  0
    5.3230   60.5560   70.9440 O   0  0  0  0  0  0  0  0  0  0  0  0
    5.1510   61.8740   71.4750 C   0  0  0  0  0  0  0  0  0  0  0  0
    4.4770   62.7970   70.4520 C   0  0  0  0  0  0  0  0  0  0  0  0
   -1.5270   67.0722   66.9828 H   0  0  0  0  0  0  0  0  0  0  0  0
   -1.6956   65.7821   69.1076 H   0  0  0  0  0  0  0  0  0  0  0  0
    2.2608   67.1159   70.2014 H   0  0  0  0  0  0  0  0  0  0  0  0
    2.4331   68.3933   68.0682 H   0  0  0  0  0  0  0  0  0  0  0  0
    1.9372   69.8444   65.8419 H   0  0  0  0  0  0  0  0  0  0  0  0
    2.4632   68.1425   65.9431 H   0  0  0  0  0  0  0  0  0  0  0  0
    2.2469   69.3157   63.5750 H   0  0  0  0  0  0  0  0  0  0  0  0
    1.6435   67.6211   63.8026 H   0  0  0  0  0  0  0  0  0  0  0  0
    0.0577   70.5900   62.0632 H   0  0  0  0  0  0  0  0  0  0  0  0
    1.0051   69.1179   61.6607 H   0  0  0  0  0  0  0  0  0  0  0  0
   -0.7902   69.0585   61.6607 H   0  0  0  0  0  0  0  0  0  0  0  0
   -0.2198   69.9611   64.2199 H   0  0  0  0  0  0  0  0  0  0  0  0
   -0.5731   68.2469   63.7510 H   0  0  0  0  0  0  0  0  0  0  0  0
   -0.4314   63.9267   71.7108 H   0  0  0  0  0  0  0  0  0  0  0  0
    0.0216   63.9499   69.9783 H   0  0  0  0  0  0  0  0  0  0  0  0
    2.4283   64.4502   70.8288 H   0  0  0  0  0  0  0  0  0  0  0  0
    1.7582   63.8585   72.4412 H   0  0  0  0  0  0  0  0  0  0  0  0
    2.2519   61.8067   71.8903 H   0  0  0  0  0  0  0  0  0  0  0  0
    1.1015   61.9529   70.4808 H   0  0  0  0  0  0  0  0  0  0  0  0
    2.8302   62.7986   69.2087 H   0  0  0  0  0  0  0  0  0  0  0  0
    2.3694   60.3235   69.3139 H   0  0  0  0  0  0  0  0  0  0  0  0
    3.9628   60.7923   68.6083 H   0  0  0  0  0  0  0  0  0  0  0  0
    3.4372   59.8915   71.4871 H   0  0  0  0  0  0  0  0  0  0  0  0
    4.2676   58.9498   70.1869 H   0  0  0  0  0  0  0  0  0  0  0  0
    4.5242   61.8190   72.3772 H   0  0  0  0  0  0  0  0  0  0  0  0
    6.1419   62.2853   71.7176 H   0  0  0  0  0  0  0  0  0  0  0  0
    4.3039   63.7809   70.9125 H   0  0  0  0  0  0  0  0  0  0  0  0
    5.1360   62.8956   69.5768 H   0  0  0  0  0  0  0  0  0  0  0  0
  2  1  2  0
  3  2  1  0
  4  3  2  0
  5  4  1  0
  6  5  2  0
  6  1  1  0
  7  1  1  0
  8  7  1  0
  9  8  1  0
 11 10  1  0
 11  9  1  0
 12  4  1  0
 13 12  1  0
 14 13  1  0
 15 14  1  0
 16 15  1  0
 17 16  1  0
 18 17  1  0
 19 18  1  0
 20 19  1  0
 21 20  1  0
 21 16  1  0
  2 22  1  0
  3 23  1  0
  5 24  1  0
  6 25  1  0
  8 26  1  0
  8 27  1  0
  9 28  1  0
  9 29  1  0
 10 30  1  0
 10 31  1  0
 10 32  1  0
 11 33  1  0
 11 34  1  0
 13 35  1  0
 13 36  1  0
 14 37  1  0
 14 38  1  0
 15 39  1  0
 15 40  1  0
 16 41  1  0
 17 42  1  0
 17 43  1  0
 18 44  1  0
 18 45  1  0
 20 46  1  0
 20 47  1  0
 21 48  1  0
 21 49  1  0
M  CHG  1  16   1
M  END
>  <score>  (6) 
-6.769

$$$$
=
     RDKit          3D

 49 50  0  0  0  0  0  0  0  0999 V2000
    1.2500   68.5670   65.6530 C   0  0  0  0  0  0  0  0  0  0  0  0
    2.0410   68.8810   66.7600 C   0  0  0  0  0  0  0  0  0  0  0  0
    1.7350   68.3810   68.0300 C   0  0  0  0  0  0  0  0  0  0  0  0
    0.6300   67.5510   68.2010 C   0  0  0  0  0  0  0  0  0  0  0  0
   -0.1650   67.2380   67.0950 C   0  0  0  0  0  0  0  0  0  0  0  0
    0.1410   67.7430   65.8260 C   0  0  0  0  0  0  0  0  0  0  0  0
    1.6670   69.1230   64.4780 O   0  0  0  0  0  0  0  0  0  0  0  0
    2.3780   68.2840   63.5690 C   0  0  0  0  0  0  0  0  0  0  0  0
    3.7070   68.9620   63.2480 C   0  0  0  0  0  0  0  0  0  0  0  0
    5.1300   69.7070   65.1880 C   0  0  0  0  0  0  0  0  0  0  0  0
    4.7970   68.5660   64.2400 C   0  0  0  0  0  0  0  0  0  0  0  0
    0.2280   66.9780   69.3760 O   0  0  0  0  0  0  0  0  0  0  0  0
    1.1930   66.1990   70.0800 C   0  0  0  0  0  0  0  0  0  0  0  0
    0.4620   65.1260   70.8870 C   0  0  0  0  0  0  0  0  0  0  0  0
    0.9080   63.6860   70.6270 C   0  0  0  0  0  0  0  0  0  0  0  0
    2.3540   63.4360   70.9840 N   0  0  0  0  0  4  0  0  0  0  0  0
    3.2270   63.1400   69.7660 C   0  0  0  0  0  0  0  0  0  0  0  0
    3.0260   61.6950   69.2960 C   0  0  0  0  0  0  0  0  0  0  0  0
    3.3000   60.7700   70.3550 O   0  0  0  0  0  0  0  0  0  0  0  0
    2.4350   60.9720   71.4780 C   0  0  0  0  0  0  0  0  0  0  0  0
    2.6010   62.3820   72.0550 C   0  0  0  0  0  0  0  0  0  0  0  0
    2.9185   69.5317   66.6313 H   0  0  0  0  0  0  0  0  0  0  0  0
    2.3661   68.6429   68.8921 H   0  0  0  0  0  0  0  0  0  0  0  0
   -1.0421   66.5867   67.2234 H   0  0  0  0  0  0  0  0  0  0  0  0
   -0.4948   67.4888   64.9651 H   0  0  0  0  0  0  0  0  0  0  0  0
    2.5609   67.3026   64.0310 H   0  0  0  0  0  0  0  0  0  0  0  0
    1.7931   68.1319   62.6499 H   0  0  0  0  0  0  0  0  0  0  0  0
    4.0220   68.6677   62.2360 H   0  0  0  0  0  0  0  0  0  0  0  0
    3.5616   70.0503   63.3148 H   0  0  0  0  0  0  0  0  0  0  0  0
    5.0291   69.3614   66.2274 H   0  0  0  0  0  0  0  0  0  0  0  0
    6.1631   70.0409   65.0112 H   0  0  0  0  0  0  0  0  0  0  0  0
    4.4387   70.5442   65.0112 H   0  0  0  0  0  0  0  0  0  0  0  0
    5.7038   68.2885   63.6825 H   0  0  0  0  0  0  0  0  0  0  0  0
    4.4288   67.7184   64.8366 H   0  0  0  0  0  0  0  0  0  0  0  0
    1.8772   65.7213   69.3634 H   0  0  0  0  0  0  0  0  0  0  0  0
    1.7753   66.8438   70.7546 H   0  0  0  0  0  0  0  0  0  0  0  0
    0.6171   65.3409   71.9546 H   0  0  0  0  0  0  0  0  0  0  0  0
   -0.5906   65.1769   70.5718 H   0  0  0  0  0  0  0  0  0  0  0  0
    0.2786   63.0117   71.2263 H   0  0  0  0  0  0  0  0  0  0  0  0
    0.8017   63.5013   69.5478 H   0  0  0  0  0  0  0  0  0  0  0  0
    2.6338   64.3370   71.3973 H   0  0  0  0  0  0  0  0  0  0  0  0
    2.9547   63.8264   68.9507 H   0  0  0  0  0  0  0  0  0  0  0  0
    4.2822   63.2787   70.0441 H   0  0  0  0  0  0  0  0  0  0  0  0
    1.9850   61.5655   68.9651 H   0  0  0  0  0  0  0  0  0  0  0  0
    3.7206   61.4954   68.4667 H   0  0  0  0  0  0  0  0  0  0  0  0
    1.3917   60.8356   71.1571 H   0  0  0  0  0  0  0  0  0  0  0  0
    2.6980   60.2420   72.2577 H   0  0  0  0  0  0  0  0  0  0  0  0
    1.8804   62.5239   72.8739 H   0  0  0  0  0  0  0  0  0  0  0  0
    3.6300   62.4920   72.4278 H   0  0  0  0  0  0  0  0  0  0  0  0
  2  1  2  0
  3  2  1  0
  4  3  2  0
  5  4  1  0
  6  5  2  0
  6  1  1  0
  7  1  1  0
  8  7  1  0
  9  8  1  0
 11 10  1  0
 11  9  1  0
 12  4  1  0
 13 12  1  0
 14 13  1  0
 15 14  1  0
 16 15  1  0
 17 16  1  0
 18 17  1  0
 19 18  1  0
 20 19  1  0
 21 20  1  0
 21 16  1  0
  2 22  1  0
  3 23  1  0
  5 24  1  0
  6 25  1  0
  8 26  1  0
  8 27  1  0
  9 28  1  0
  9 29  1  0
 10 30  1  0
 10 31  1  0
 10 32  1  0
 11 33  1  0
 11 34  1  0
 13 35  1  0
 13 36  1  0
 14 37  1  0
 14 38  1  0
 15 39  1  0
 15 40  1  0
 16 41  1  0
 17 42  1  0
 17 43  1  0
 18 44  1  0
 18 45  1  0
 20 46  1  0
 20 47  1  0
 21 48  1  0
 21 49  1  0
M  CHG  1  16   1
M  END
>  <score>  (7) 
-6.586

$$$$
=
     RDKit          3D

 49 50  0  0  0  0  0  0  0  0999 V2000
    2.2050   61.7070   72.1280 C   0  0  0  0  0  0  0  0  0  0  0  0
    1.7040   62.7930   72.8480 C   0  0  0  0  0  0  0  0  0  0  0  0
    1.0300   63.8350   72.2040 C   0  0  0  0  0  0  0  0  0  0  0  0
    0.8430   63.7950   70.8250 C   0  0  0  0  0  0  0  0  0  0  0  0
    1.3470   62.7090   70.1010 C   0  0  0  0  0  0  0  0  0  0  0  0
    2.0260   61.6690   70.7470 C   0  0  0  0  0  0  0  0  0  0  0  0
    2.8400   60.7650   72.8850 O   0  0  0  0  0  0  0  0  0  0  0  0
    4.0510   60.2130   72.3680 C   0  0  0  0  0  0  0  0  0  0  0  0
    5.1000   61.3230   72.3480 C   0  0  0  0  0  0  0  0  0  0  0  0
    5.2030   63.2850   70.7730 C   0  0  0  0  0  0  0  0  0  0  0  0
    5.4050   61.7860   70.9270 C   0  0  0  0  0  0  0  0  0  0  0  0
    0.1880   64.7300   70.0730 O   0  0  0  0  0  0  0  0  0  0  0  0
    0.3750   66.0970   70.4340 C   0  0  0  0  0  0  0  0  0  0  0  0
    0.9210   66.8540   69.2230 C   0  0  0  0  0  0  0  0  0  0  0  0
   -0.1170   67.2570   68.1730 C   0  0  0  0  0  0  0  0  0  0  0  0
    0.1680   68.5970   67.5380 N   0  0  0  0  0  4  0  0  0  0  0  0
   -1.0890   69.2840   67.0050 C   0  0  0  0  0  0  0  0  0  0  0  0
   -1.5140   68.6680   65.6670 C   0  0  0  0  0  0  0  0  0  0  0  0
   -0.4500   68.7390   64.7100 O   0  0  0  0  0  0  0  0  0  0  0  0
    0.7130   68.0290   65.1500 C   0  0  0  0  0  0  0  0  0  0  0  0
    1.2480   68.6080   66.4650 C   0  0  0  0  0  0  0  0  0  0  0  0
    1.8416   62.8295   73.9387 H   0  0  0  0  0  0  0  0  0  0  0  0
    0.6476   64.6861   72.7867 H   0  0  0  0  0  0  0  0  0  0  0  0
    1.2080   62.6719   69.0105 H   0  0  0  0  0  0  0  0  0  0  0  0
    2.4180   60.8223   70.1644 H   0  0  0  0  0  0  0  0  0  0  0  0
    4.3911   59.3885   73.0119 H   0  0  0  0  0  0  0  0  0  0  0  0
    3.8906   59.8181   71.3539 H   0  0  0  0  0  0  0  0  0  0  0  0
    4.7248   62.1785   72.9288 H   0  0  0  0  0  0  0  0  0  0  0  0
    6.0277   60.9257   72.7856 H   0  0  0  0  0  0  0  0  0  0  0  0
    5.1403   63.7506   71.7676 H   0  0  0  0  0  0  0  0  0  0  0  0
    6.0514   63.7144   70.2200 H   0  0  0  0  0  0  0  0  0  0  0  0
    4.2712   63.4745   70.2200 H   0  0  0  0  0  0  0  0  0  0  0  0
    4.7357   61.2617   70.2290 H   0  0  0  0  0  0  0  0  0  0  0  0
    6.4581   61.5558   70.7080 H   0  0  0  0  0  0  0  0  0  0  0  0
   -0.5869   66.5337   70.7405 H   0  0  0  0  0  0  0  0  0  0  0  0
    1.0839   66.1696   71.2719 H   0  0  0  0  0  0  0  0  0  0  0  0
    1.4071   67.7708   69.5878 H   0  0  0  0  0  0  0  0  0  0  0  0
    1.6069   66.1585   68.7171 H   0  0  0  0  0  0  0  0  0  0  0  0
   -0.1304   66.4916   67.3830 H   0  0  0  0  0  0  0  0  0  0  0  0
   -1.0865   67.3383   68.6864 H   0  0  0  0  0  0  0  0  0  0  0  0
    0.5457   69.1361   68.3302 H   0  0  0  0  0  0  0  0  0  0  0  0
   -1.9039   69.1629   67.7339 H   0  0  0  0  0  0  0  0  0  0  0  0
   -0.8718   70.3513   66.8511 H   0  0  0  0  0  0  0  0  0  0  0  0
   -1.7856   67.6140   65.8260 H   0  0  0  0  0  0  0  0  0  0  0  0
   -2.3745   69.2322   65.2781 H   0  0  0  0  0  0  0  0  0  0  0  0
    0.4519   66.9714   65.3029 H   0  0  0  0  0  0  0  0  0  0  0  0
    1.4939   68.1270   64.3816 H   0  0  0  0  0  0  0  0  0  0  0  0
    2.1010   68.0025   66.8053 H   0  0  0  0  0  0  0  0  0  0  0  0
    1.5624   69.6477   66.2911 H   0  0  0  0  0  0  0  0  0  0  0  0
  2  1  2  0
  3  2  1  0
  4  3  2  0
  5  4  1  0
  6  5  2  0
  6  1  1  0
  7  1  1  0
  8  7  1  0
  9  8  1  0
 11 10  1  0
 11  9  1  0
 12  4  1  0
 13 12  1  0
 14 13  1  0
 15 14  1  0
 16 15  1  0
 17 16  1  0
 18 17  1  0
 19 18  1  0
 20 19  1  0
 21 20  1  0
 21 16  1  0
  2 22  1  0
  3 23  1  0
  5 24  1  0
  6 25  1  0
  8 26  1  0
  8 27  1  0
  9 28  1  0
  9 29  1  0
 10 30  1  0
 10 31  1  0
 10 32  1  0
 11 33  1  0
 11 34  1  0
 13 35  1  0
 13 36  1  0
 14 37  1  0
 14 38  1  0
 15 39  1  0
 15 40  1  0
 16 41  1  0
 17 42  1  0
 17 43  1  0
 18 44  1  0
 18 45  1  0
 20 46  1  0
 20 47  1  0
 21 48  1  0
 21 49  1  0
M  CHG  1  16   1
M  END
>  <score>  (8) 
-6.556

$$$$
=
     RDKit          3D

 49 50  0  0  0  0  0  0  0  0999 V2000
    0.3160   66.0200   69.9910 C   0  0  0  0  0  0  0  0  0  0  0  0
    1.4400   66.8330   69.8390 C   0  0  0  0  0  0  0  0  0  0  0  0
    1.5020   67.7960   68.8260 C   0  0  0  0  0  0  0  0  0  0  0  0
    0.4270   67.9580   67.9550 C   0  0  0  0  0  0  0  0  0  0  0  0
   -0.6980   67.1420   68.1040 C   0  0  0  0  0  0  0  0  0  0  0  0
   -0.7560   66.1760   69.1150 C   0  0  0  0  0  0  0  0  0  0  0  0
    0.3940   65.1260   71.0190 O   0  0  0  0  0  0  0  0  0  0  0  0
    0.6020   63.7540   70.6840 C   0  0  0  0  0  0  0  0  0  0  0  0
    1.9470   63.3290   71.2690 C   0  0  0  0  0  0  0  0  0  0  0  0
    3.5310   62.4630   69.5130 C   0  0  0  0  0  0  0  0  0  0  0  0
    3.1020   63.6700   70.3330 C   0  0  0  0  0  0  0  0  0  0  0  0
    0.3440   68.8690   66.9390 O   0  0  0  0  0  0  0  0  0  0  0  0
    1.4930   69.0160   66.1070 C   0  0  0  0  0  0  0  0  0  0  0  0
    1.2960   68.1750   64.8460 C   0  0  0  0  0  0  0  0  0  0  0  0
    2.1040   68.6190   63.6230 C   0  0  0  0  0  0  0  0  0  0  0  0
    3.5960   68.5350   63.8320 N   0  0  0  0  0  4  0  0  0  0  0  0
    4.3920   68.7420   62.5440 C   0  0  0  0  0  0  0  0  0  0  0  0
    4.3750   67.4700   61.6890 C   0  0  0  0  0  0  0  0  0  0  0  0
    4.8810   66.3500   62.4260 O   0  0  0  0  0  0  0  0  0  0  0  0
    4.1000   66.0830   63.5960 C   0  0  0  0  0  0  0  0  0  0  0  0
    4.0980   67.2860   64.5450 C   0  0  0  0  0  0  0  0  0  0  0  0
    2.2906   66.7148   70.5264 H   0  0  0  0  0  0  0  0  0  0  0  0
    2.3983   68.4243   68.7175 H   0  0  0  0  0  0  0  0  0  0  0  0
   -1.5492   67.2607   67.4174 H   0  0  0  0  0  0  0  0  0  0  0  0
   -1.6477   65.5401   69.2179 H   0  0  0  0  0  0  0  0  0  0  0  0
   -0.2032   63.1383   71.1113 H   0  0  0  0  0  0  0  0  0  0  0  0
    0.5986   63.6205   69.5921 H   0  0  0  0  0  0  0  0  0  0  0  0
    2.0992   63.8480   72.2269 H   0  0  0  0  0  0  0  0  0  0  0  0
    1.9304   62.2382   71.4101 H   0  0  0  0  0  0  0  0  0  0  0  0
    3.8217   61.6452   70.1888 H   0  0  0  0  0  0  0  0  0  0  0  0
    2.6945   62.1347   68.8786 H   0  0  0  0  0  0  0  0  0  0  0  0
    4.3871   62.7362   68.8786 H   0  0  0  0  0  0  0  0  0  0  0  0
    3.9568   64.0171   70.9320 H   0  0  0  0  0  0  0  0  0  0  0  0
    2.7642   64.4550   69.6404 H   0  0  0  0  0  0  0  0  0  0  0  0
    1.6172   70.0735   65.8309 H   0  0  0  0  0  0  0  0  0  0  0  0
    2.3911   68.6792   66.6455 H   0  0  0  0  0  0  0  0  0  0  0  0
    1.5806   67.1390   65.0820 H   0  0  0  0  0  0  0  0  0  0  0  0
    0.2384   68.2925   64.5674 H   0  0  0  0  0  0  0  0  0  0  0  0
    1.8335   67.9752   62.7731 H   0  0  0  0  0  0  0  0  0  0  0  0
    1.8597   69.6752   63.4365 H   0  0  0  0  0  0  0  0  0  0  0  0
    3.7691   69.3216   64.4740 H   0  0  0  0  0  0  0  0  0  0  0  0
    3.9451   69.5683   61.9717 H   0  0  0  0  0  0  0  0  0  0  0  0
    5.4337   68.9798   62.8053 H   0  0  0  0  0  0  0  0  0  0  0  0
    3.3411   67.2590   61.3784 H   0  0  0  0  0  0  0  0  0  0  0  0
    5.0161   67.6298   60.8096 H   0  0  0  0  0  0  0  0  0  0  0  0
    3.0655   65.8617   63.2945 H   0  0  0  0  0  0  0  0  0  0  0  0
    4.5419   65.2240   64.1222 H   0  0  0  0  0  0  0  0  0  0  0  0
    3.4408   67.0699   65.4002 H   0  0  0  0  0  0  0  0  0  0  0  0
    5.1271   67.4657   64.8896 H   0  0  0  0  0  0  0  0  0  0  0  0
  2  1  2  0
  3  2  1  0
  4  3  2  0
  5  4  1  0
  6  5  2  0
  6  1  1  0
  7  1  1  0
  8  7  1  0
  9  8  1  0
 11 10  1  0
 11  9  1  0
 12  4  1  0
 13 12  1  0
 14 13  1  0
 15 14  1  0
 16 15  1  0
 17 16  1  0
 18 17  1  0
 19 18  1  0
 20 19  1  0
 21 20  1  0
 21 16  1  0
  2 22  1  0
  3 23  1  0
  5 24  1  0
  6 25  1  0
  8 26  1  0
  8 27  1  0
  9 28  1  0
  9 29  1  0
 10 30  1  0
 10 31  1  0
 10 32  1  0
 11 33  1  0
 11 34  1  0
 13 35  1  0
 13 36  1  0
 14 37  1  0
 14 38  1  0
 15 39  1  0
 15 40  1  0
 16 41  1  0
 17 42  1  0
 17 43  1  0
 18 44  1  0
 18 45  1  0
 20 46  1  0
 20 47  1  0
 21 48  1  0
 21 49  1  0
M  CHG  1  16   1
M  END
>  <score>  (9) 
-6.499

$$$$
