=
     RDKit          3D

 63 66  0  0  0  0  0  0  0  0999 V2000
    4.1360   63.0820   68.7680 O   0  0  0  0  0  0  0  0  0  0  0  0
    3.6570   62.2850   69.5620 C   0  0  0  0  0  0  0  0  0  0  0  0
    3.9780   60.8350   69.4970 C   0  0  0  0  0  0  0  0  0  0  0  0
    3.5800   59.9790   70.4540 C   0  0  0  0  0  0  0  0  0  0  0  0
    2.7560   60.4300   71.6560 C   0  0  1  0  0  0  0  0  0  0  0  0
    1.9410   61.6810   71.1910 C   0  0  2  0  0  0  0  0  0  0  0  0
    2.7960   62.6670   70.5590 N   0  0  0  0  0  0  0  0  0  0  0  0
    1.0810   62.2750   72.3020 C   0  0  0  0  0  0  0  0  0  0  0  0
    0.0900   61.2330   72.8180 C   0  0  0  0  0  0  0  0  0  0  0  0
    0.7800   59.9300   73.2570 C   0  0  2  0  0  0  0  0  0  0  0  0
    1.7150   59.3580   72.1360 C   0  0  2  0  0  0  0  0  0  0  0  0
    2.3320   57.9950   72.5520 C   0  0  0  0  0  0  0  0  0  0  0  0
    1.2900   56.9780   73.0530 C   0  0  0  0  0  0  0  0  0  0  0  0
    0.4140   57.5610   74.1720 C   0  0  1  0  0  0  0  0  0  0  0  0
   -0.2430   58.8510   73.6320 C   0  0  1  0  0  0  0  0  0  0  0  0
   -1.3140   59.1650   74.6720 C   0  0  0  0  0  0  0  0  0  0  0  0
   -1.8500   57.7780   75.0770 C   0  0  0  0  0  0  0  0  0  0  0  0
   -0.8650   56.7450   74.4790 C   0  0  2  0  0  0  0  0  0  0  0  0
    1.2750   57.7850   75.4400 C   0  0  0  0  0  0  0  0  0  0  0  0
    3.7710   60.7790   72.7720 C   0  0  0  0  0  0  0  0  0  0  0  0
   -0.6660   55.4490   75.2640 C   0  0  0  0  0  0  0  0  0  0  0  0
   -0.6370   55.4700   76.4920 O   0  0  0  0  0  0  0  0  0  0  0  0
   -0.5790   54.2920   74.5270 N   0  0  0  0  0  0  0  0  0  0  0  0
   -0.4610   52.9390   75.0930 C   0  0  0  0  0  0  0  0  0  0  0  0
    0.8980   52.7410   75.7840 C   0  0  0  0  0  0  0  0  0  0  0  0
   -0.5620   51.9290   73.9330 C   0  0  0  0  0  0  0  0  0  0  0  0
   -1.6040   52.6580   76.0810 C   0  0  0  0  0  0  0  0  0  0  0  0
    4.5565   60.4524   68.6432 H   0  0  0  0  0  0  0  0  0  0  0  0
    3.8577   58.9181   70.3675 H   0  0  0  0  0  0  0  0  0  0  0  0
    1.2317   61.3317   70.4262 H   0  0  0  0  0  0  0  0  0  0  0  0
    2.7568   63.6519   70.8581 H   0  0  0  0  0  0  0  0  0  0  0  0
    1.7296   62.6000   73.1288 H   0  0  0  0  0  0  0  0  0  0  0  0
    0.5222   63.1340   71.9023 H   0  0  0  0  0  0  0  0  0  0  0  0
   -0.4484   61.6546   73.6796 H   0  0  0  0  0  0  0  0  0  0  0  0
   -0.5954   60.9868   71.9936 H   0  0  0  0  0  0  0  0  0  0  0  0
    1.3855   60.1883   74.1383 H   0  0  0  0  0  0  0  0  0  0  0  0
    1.1059   59.1347   71.2477 H   0  0  0  0  0  0  0  0  0  0  0  0
    2.8473   57.5652   71.6803 H   0  0  0  0  0  0  0  0  0  0  0  0
    3.0202   58.1921   73.3872 H   0  0  0  0  0  0  0  0  0  0  0  0
    0.6446   56.6860   72.2115 H   0  0  0  0  0  0  0  0  0  0  0  0
    1.8288   56.1092   73.4589 H   0  0  0  0  0  0  0  0  0  0  0  0
   -0.7301   58.7579   72.6501 H   0  0  0  0  0  0  0  0  0  0  0  0
   -0.8789   59.6853   75.5380 H   0  0  0  0  0  0  0  0  0  0  0  0
   -2.1010   59.8292   74.2854 H   0  0  0  0  0  0  0  0  0  0  0  0
   -1.8810   57.6859   76.1727 H   0  0  0  0  0  0  0  0  0  0  0  0
   -2.8732   57.6188   74.7058 H   0  0  0  0  0  0  0  0  0  0  0  0
   -1.2813   56.2941   73.5661 H   0  0  0  0  0  0  0  0  0  0  0  0
    0.6572   57.6243   76.3358 H   0  0  0  0  0  0  0  0  0  0  0  0
    2.1158   57.0757   75.4423 H   0  0  0  0  0  0  0  0  0  0  0  0
    1.6635   58.8141   75.4423 H   0  0  0  0  0  0  0  0  0  0  0  0
    3.3045   60.6186   73.7552 H   0  0  0  0  0  0  0  0  0  0  0  0
    4.6568   60.1338   72.6768 H   0  0  0  0  0  0  0  0  0  0  0  0
    4.0728   61.8325   72.6768 H   0  0  0  0  0  0  0  0  0  0  0  0
   -0.5978   54.3787   73.5008 H   0  0  0  0  0  0  0  0  0  0  0  0
    0.7609   52.7610   76.8752 H   0  0  0  0  0  0  0  0  0  0  0  0
    1.3233   51.7714   75.4856 H   0  0  0  0  0  0  0  0  0  0  0  0
    1.5822   53.5489   75.4856 H   0  0  0  0  0  0  0  0  0  0  0  0
   -0.6637   50.9121   74.3400 H   0  0  0  0  0  0  0  0  0  0  0  0
   -1.4409   52.1664   73.3156 H   0  0  0  0  0  0  0  0  0  0  0  0
    0.3465   51.9877   73.3156 H   0  0  0  0  0  0  0  0  0  0  0  0
   -1.2292   52.7501   77.1111 H   0  0  0  0  0  0  0  0  0  0  0  0
   -2.4149   53.3835   75.9196 H   0  0  0  0  0  0  0  0  0  0  0  0
   -1.9860   51.6392   75.9196 H   0  0  0  0  0  0  0  0  0  0  0  0
  2  1  2  0
  3  2  1  0
  4  3  2  0
  5  4  1  0
  6  5  1  0
  7  2  1  0
  7  6  1  0
  8  6  1  0
  9  8  1  0
 10  9  1  0
 11 10  1  0
 11  5  1  0
 12 11  1  0
 13 12  1  0
 14 13  1  0
 15 14  1  0
 15 10  1  0
 16 15  1  0
 17 16  1  0
 18 17  1  0
 18 14  1  0
 14 19  1  1
  5 20  1  1
 21 18  1  0
 22 21  2  0
 23 21  1  0
 24 23  1  0
 25 24  1  0
 26 24  1  0
 27 24  1  0
  3 28  1  0
  4 29  1  0
  6 30  1  6
  7 31  1  0
  8 32  1  0
  8 33  1  0
  9 34  1  0
  9 35  1  0
 10 36  1  1
 11 37  1  6
 12 38  1  0
 12 39  1  0
 13 40  1  0
 13 41  1  0
 15 42  1  6
 16 43  1  0
 16 44  1  0
 17 45  1  0
 17 46  1  0
 18 47  1  6
 19 48  1  0
 19 49  1  0
 19 50  1  0
 20 51  1  0
 20 52  1  0
 20 53  1  0
 23 54  1  0
 25 55  1  0
 25 56  1  0
 25 57  1  0
 26 58  1  0
 26 59  1  0
 26 60  1  0
 27 61  1  0
 27 62  1  0
 27 63  1  0
M  END
>  <score>  (1) 
-9.101

$$$$
=
     RDKit          3D

 63 66  0  0  0  0  0  0  0  0999 V2000
   -4.6820   56.8580   77.0930 O   0  0  0  0  0  0  0  0  0  0  0  0
   -3.7100   57.2580   76.4670 C   0  0  0  0  0  0  0  0  0  0  0  0
   -3.6630   58.6310   75.9000 C   0  0  0  0  0  0  0  0  0  0  0  0
   -2.5440   59.1300   75.3460 C   0  0  0  0  0  0  0  0  0  0  0  0
   -1.2570   58.3160   75.2430 C   0  0  1  0  0  0  0  0  0  0  0  0
   -1.6860   56.8140   75.1760 C   0  0  2  0  0  0  0  0  0  0  0  0
   -2.6060   56.4770   76.2450 N   0  0  0  0  0  0  0  0  0  0  0  0
   -0.4970   55.8610   75.1000 C   0  0  0  0  0  0  0  0  0  0  0  0
    0.3460   56.1650   73.8630 C   0  0  0  0  0  0  0  0  0  0  0  0
    0.7840   57.6380   73.7950 C   0  0  2  0  0  0  0  0  0  0  0  0
   -0.4340   58.6150   73.9400 C   0  0  2  0  0  0  0  0  0  0  0  0
    0.0040   60.0960   73.7760 C   0  0  0  0  0  0  0  0  0  0  0  0
    0.8410   60.3500   72.5080 C   0  0  0  0  0  0  0  0  0  0  0  0
    2.0420   59.3970   72.4160 C   0  0  1  0  0  0  0  0  0  0  0  0
    1.5020   57.9510   72.4780 C   0  0  1  0  0  0  0  0  0  0  0  0
    2.7020   57.1060   72.0620 C   0  0  0  0  0  0  0  0  0  0  0  0
    3.3820   57.9500   70.9660 C   0  0  0  0  0  0  0  0  0  0  0  0
    2.7180   59.3470   71.0240 C   0  0  2  0  0  0  0  0  0  0  0  0
    3.0560   59.7310   73.5380 C   0  0  0  0  0  0  0  0  0  0  0  0
   -0.4400   58.6320   76.5190 C   0  0  0  0  0  0  0  0  0  0  0  0
    3.5960   60.5430   70.6560 C   0  0  0  0  0  0  0  0  0  0  0  0
    4.8130   60.4070   70.5570 O   0  0  0  0  0  0  0  0  0  0  0  0
    2.9450   61.7260   70.4000 N   0  0  0  0  0  0  0  0  0  0  0  0
    3.5980   62.9690   69.9600 C   0  0  0  0  0  0  0  0  0  0  0  0
    4.9430   63.1730   70.6760 C   0  0  0  0  0  0  0  0  0  0  0  0
    2.6750   64.1460   70.3290 C   0  0  0  0  0  0  0  0  0  0  0  0
    3.8010   62.9710   68.4370 C   0  0  0  0  0  0  0  0  0  0  0  0
   -4.5678   59.2557   75.9345 H   0  0  0  0  0  0  0  0  0  0  0  0
   -2.5565   60.1579   74.9545 H   0  0  0  0  0  0  0  0  0  0  0  0
   -2.2296   56.6796   74.2292 H   0  0  0  0  0  0  0  0  0  0  0  0
   -2.4301   55.6522   76.8363 H   0  0  0  0  0  0  0  0  0  0  0  0
    0.1231   55.9814   76.0006 H   0  0  0  0  0  0  0  0  0  0  0  0
   -0.8693   54.8279   75.0350 H   0  0  0  0  0  0  0  0  0  0  0  0
    1.2444   55.5306   73.8839 H   0  0  0  0  0  0  0  0  0  0  0  0
   -0.2740   55.9599   72.9778 H   0  0  0  0  0  0  0  0  0  0  0  0
    1.4749   57.7898   74.6374 H   0  0  0  0  0  0  0  0  0  0  0  0
   -1.1344   58.4314   73.1119 H   0  0  0  0  0  0  0  0  0  0  0  0
   -0.8984   60.7233   73.7295 H   0  0  0  0  0  0  0  0  0  0  0  0
    0.6391   60.3441   74.6392 H   0  0  0  0  0  0  0  0  0  0  0  0
    0.2021   60.2037   71.6246 H   0  0  0  0  0  0  0  0  0  0  0  0
    1.2248   61.3799   72.5527 H   0  0  0  0  0  0  0  0  0  0  0  0
    0.6684   57.7289   71.7955 H   0  0  0  0  0  0  0  0  0  0  0  0
    3.3819   56.9454   72.9117 H   0  0  0  0  0  0  0  0  0  0  0  0
    2.4159   56.1034   71.7114 H   0  0  0  0  0  0  0  0  0  0  0  0
    4.4612   58.0321   71.1623 H   0  0  0  0  0  0  0  0  0  0  0  0
    3.2632   57.4901   69.9738 H   0  0  0  0  0  0  0  0  0  0  0  0
    1.9804   59.4613   70.2160 H   0  0  0  0  0  0  0  0  0  0  0  0
    2.5825   59.5750   74.5185 H   0  0  0  0  0  0  0  0  0  0  0  0
    3.9339   59.0745   73.4462 H   0  0  0  0  0  0  0  0  0  0  0  0
    3.3719   60.7807   73.4462 H   0  0  0  0  0  0  0  0  0  0  0  0
   -1.0439   58.3984   77.4083 H   0  0  0  0  0  0  0  0  0  0  0  0
    0.4763   58.0234   76.5278 H   0  0  0  0  0  0  0  0  0  0  0  0
   -0.1717   59.6987   76.5278 H   0  0  0  0  0  0  0  0  0  0  0  0
    1.9228   61.7438   70.5256 H   0  0  0  0  0  0  0  0  0  0  0  0
    4.7862   63.1492   71.7645 H   0  0  0  0  0  0  0  0  0  0  0  0
    5.6373   62.3699   70.3879 H   0  0  0  0  0  0  0  0  0  0  0  0
    5.3679   64.1459   70.3879 H   0  0  0  0  0  0  0  0  0  0  0  0
    2.6086   64.2307   71.4237 H   0  0  0  0  0  0  0  0  0  0  0  0
    3.0854   65.0781   69.9134 H   0  0  0  0  0  0  0  0  0  0  0  0
    1.6719   63.9696   69.9134 H   0  0  0  0  0  0  0  0  0  0  0  0
    4.8774   62.9816   68.2106 H   0  0  0  0  0  0  0  0  0  0  0  0
    3.3443   62.0683   68.0050 H   0  0  0  0  0  0  0  0  0  0  0  0
    3.3266   63.8645   68.0050 H   0  0  0  0  0  0  0  0  0  0  0  0
  2  1  2  0
  3  2  1  0
  4  3  2  0
  5  4  1  0
  6  5  1  0
  7  2  1  0
  7  6  1  0
  8  6  1  0
  9  8  1  0
 10  9  1  0
 11 10  1  0
 11  5  1  0
 12 11  1  0
 13 12  1  0
 14 13  1  0
 15 14  1  0
 15 10  1  0
 16 15  1  0
 17 16  1  0
 18 17  1  0
 18 14  1  0
 14 19  1  1
  5 20  1  1
 21 18  1  0
 22 21  2  0
 23 21  1  0
 24 23  1  0
 25 24  1  0
 26 24  1  0
 27 24  1  0
  3 28  1  0
  4 29  1  0
  6 30  1  6
  7 31  1  0
  8 32  1  0
  8 33  1  0
  9 34  1  0
  9 35  1  0
 10 36  1  1
 11 37  1  6
 12 38  1  0
 12 39  1  0
 13 40  1  0
 13 41  1  0
 15 42  1  6
 16 43  1  0
 16 44  1  0
 17 45  1  0
 17 46  1  0
 18 47  1  6
 19 48  1  0
 19 49  1  0
 19 50  1  0
 20 51  1  0
 20 52  1  0
 20 53  1  0
 23 54  1  0
 25 55  1  0
 25 56  1  0
 25 57  1  0
 26 58  1  0
 26 59  1  0
 26 60  1  0
 27 61  1  0
 27 62  1  0
 27 63  1  0
M  END
>  <score>  (2) 
-8.926

$$$$
=
     RDKit          3D

 63 66  0  0  0  0  0  0  0  0999 V2000
   -6.2280   58.5230   76.4710 O   0  0  0  0  0  0  0  0  0  0  0  0
   -5.1370   58.7900   75.9860 C   0  0  0  0  0  0  0  0  0  0  0  0
   -4.9480   59.9670   75.0990 C   0  0  0  0  0  0  0  0  0  0  0  0
   -3.7290   60.3550   74.6870 C   0  0  0  0  0  0  0  0  0  0  0  0
   -2.4610   59.6030   75.0830 C   0  0  1  0  0  0  0  0  0  0  0  0
   -2.8840   58.1180   75.3270 C   0  0  2  0  0  0  0  0  0  0  0  0
   -4.0210   58.0300   76.2230 N   0  0  0  0  0  0  0  0  0  0  0  0
   -1.7200   57.2340   75.7650 C   0  0  0  0  0  0  0  0  0  0  0  0
   -0.6210   57.2420   74.7040 C   0  0  0  0  0  0  0  0  0  0  0  0
   -0.1610   58.6650   74.3440 C   0  0  2  0  0  0  0  0  0  0  0  0
   -1.3670   59.5880   73.9580 C   0  0  2  0  0  0  0  0  0  0  0  0
   -0.8850   60.9940   73.5040 C   0  0  0  0  0  0  0  0  0  0  0  0
    0.2130   60.9450   72.4260 C   0  0  0  0  0  0  0  0  0  0  0  0
    1.3940   60.0580   72.8510 C   0  0  1  0  0  0  0  0  0  0  0  0
    0.8340   58.6550   73.1770 C   0  0  1  0  0  0  0  0  0  0  0  0
    2.0850   57.7870   73.2690 C   0  0  0  0  0  0  0  0  0  0  0  0
    3.0010   58.3460   72.1620 C   0  0  0  0  0  0  0  0  0  0  0  0
    2.3590   59.6770   71.7030 C   0  0  2  0  0  0  0  0  0  0  0  0
    2.1400   60.7210   74.0360 C   0  0  0  0  0  0  0  0  0  0  0  0
   -1.9410   60.2790   76.3750 C   0  0  0  0  0  0  0  0  0  0  0  0
    3.3110   60.7740   71.2290 C   0  0  0  0  0  0  0  0  0  0  0  0
    4.5260   60.6200   71.3280 O   0  0  0  0  0  0  0  0  0  0  0  0
    2.7340   61.8820   70.6550 N   0  0  0  0  0  0  0  0  0  0  0  0
    3.4750   63.0110   70.0710 C   0  0  0  0  0  0  0  0  0  0  0  0
    4.8390   63.1940   70.7560 C   0  0  0  0  0  0  0  0  0  0  0  0
    2.6470   64.2900   70.2990 C   0  0  0  0  0  0  0  0  0  0  0  0
    3.6630   62.8180   68.5580 C   0  0  0  0  0  0  0  0  0  0  0  0
   -5.8300   60.5364   74.7705 H   0  0  0  0  0  0  0  0  0  0  0  0
   -3.6422   61.2431   74.0437 H   0  0  0  0  0  0  0  0  0  0  0  0
   -3.2076   57.7159   74.3556 H   0  0  0  0  0  0  0  0  0  0  0  0
   -3.9901   57.3979   77.0356 H   0  0  0  0  0  0  0  0  0  0  0  0
   -1.3121   57.6143   76.7131 H   0  0  0  0  0  0  0  0  0  0  0  0
   -2.0825   56.2039   75.8975 H   0  0  0  0  0  0  0  0  0  0  0  0
    0.2426   56.6781   75.0863 H   0  0  0  0  0  0  0  0  0  0  0  0
   -1.0323   56.7829   73.7929 H   0  0  0  0  0  0  0  0  0  0  0  0
    0.3282   59.0641   75.2448 H   0  0  0  0  0  0  0  0  0  0  0  0
   -1.8692   59.1612   73.0773 H   0  0  0  0  0  0  0  0  0  0  0  0
   -1.7471   61.5442   73.0989 H   0  0  0  0  0  0  0  0  0  0  0  0
   -0.4527   61.4896   74.3858 H   0  0  0  0  0  0  0  0  0  0  0  0
   -0.2180   60.5425   71.4974 H   0  0  0  0  0  0  0  0  0  0  0  0
    0.5907   61.9674   72.2772 H   0  0  0  0  0  0  0  0  0  0  0  0
    0.1678   58.2239   72.4152 H   0  0  0  0  0  0  0  0  0  0  0  0
    2.5588   57.8855   74.2568 H   0  0  0  0  0  0  0  0  0  0  0  0
    1.8702   56.7155   73.1434 H   0  0  0  0  0  0  0  0  0  0  0  0
    4.0114   58.5263   72.5578 H   0  0  0  0  0  0  0  0  0  0  0  0
    3.0979   57.6379   71.3258 H   0  0  0  0  0  0  0  0  0  0  0  0
    1.8192   59.5414   70.7542 H   0  0  0  0  0  0  0  0  0  0  0  0
    1.7236   60.3510   74.9845 H   0  0  0  0  0  0  0  0  0  0  0  0
    3.2097   60.4701   73.9824 H   0  0  0  0  0  0  0  0  0  0  0  0
    2.0164   61.8127   73.9824 H   0  0  0  0  0  0  0  0  0  0  0  0
   -2.3456   59.7531   77.2523 H   0  0  0  0  0  0  0  0  0  0  0  0
   -0.8421   60.2345   76.3953 H   0  0  0  0  0  0  0  0  0  0  0  0
   -2.2659   61.3297   76.3953 H   0  0  0  0  0  0  0  0  0  0  0  0
    1.7052   61.9250   70.6321 H   0  0  0  0  0  0  0  0  0  0  0  0
    4.7063   63.1762   71.8478 H   0  0  0  0  0  0  0  0  0  0  0  0
    5.5128   62.3782   70.4552 H   0  0  0  0  0  0  0  0  0  0  0  0
    5.2739   64.1585   70.4552 H   0  0  0  0  0  0  0  0  0  0  0  0
    2.5333   64.4656   71.3789 H   0  0  0  0  0  0  0  0  0  0  0  0
    3.1622   65.1469   69.8404 H   0  0  0  0  0  0  0  0  0  0  0  0
    1.6543   64.1707   69.8404 H   0  0  0  0  0  0  0  0  0  0  0  0
    4.4203   62.0406   68.3788 H   0  0  0  0  0  0  0  0  0  0  0  0
    2.7083   62.5109   68.1061 H   0  0  0  0  0  0  0  0  0  0  0  0
    3.9950   63.7643   68.1061 H   0  0  0  0  0  0  0  0  0  0  0  0
  2  1  2  0
  3  2  1  0
  4  3  2  0
  5  4  1  0
  6  5  1  0
  7  2  1  0
  7  6  1  0
  8  6  1  0
  9  8  1  0
 10  9  1  0
 11 10  1  0
 11  5  1  0
 12 11  1  0
 13 12  1  0
 14 13  1  0
 15 14  1  0
 15 10  1  0
 16 15  1  0
 17 16  1  0
 18 17  1  0
 18 14  1  0
 14 19  1  1
  5 20  1  1
 21 18  1  0
 22 21  2  0
 23 21  1  0
 24 23  1  0
 25 24  1  0
 26 24  1  0
 27 24  1  0
  3 28  1  0
  4 29  1  0
  6 30  1  6
  7 31  1  0
  8 32  1  0
  8 33  1  0
  9 34  1  0
  9 35  1  0
 10 36  1  1
 11 37  1  6
 12 38  1  0
 12 39  1  0
 13 40  1  0
 13 41  1  0
 15 42  1  6
 16 43  1  0
 16 44  1  0
 17 45  1  0
 17 46  1  0
 18 47  1  6
 19 48  1  0
 19 49  1  0
 19 50  1  0
 20 51  1  0
 20 52  1  0
 20 53  1  0
 23 54  1  0
 25 55  1  0
 25 56  1  0
 25 57  1  0
 26 58  1  0
 26 59  1  0
 26 60  1  0
 27 61  1  0
 27 62  1  0
 27 63  1  0
M  END
>  <score>  (3) 
-8.825

$$$$
=
     RDKit          3D

 63 66  0  0  0  0  0  0  0  0999 V2000
   -1.0270   51.8470   76.6660 O   0  0  0  0  0  0  0  0  0  0  0  0
   -0.5720   52.8340   76.1050 C   0  0  0  0  0  0  0  0  0  0  0  0
   -0.3290   52.8520   74.6390 C   0  0  0  0  0  0  0  0  0  0  0  0
    0.0240   53.9770   73.9940 C   0  0  0  0  0  0  0  0  0  0  0  0
    0.2200   55.3030   74.7230 C   0  0  1  0  0  0  0  0  0  0  0  0
    0.6480   54.9470   76.1840 C   0  0  2  0  0  0  0  0  0  0  0  0
   -0.2560   53.9830   76.7820 N   0  0  0  0  0  0  0  0  0  0  0  0
    0.8550   56.1800   77.0590 C   0  0  0  0  0  0  0  0  0  0  0  0
    1.9340   57.0790   76.4580 C   0  0  0  0  0  0  0  0  0  0  0  0
    1.6430   57.4530   74.9950 C   0  0  2  0  0  0  0  0  0  0  0  0
    1.3660   56.1860   74.1140 C   0  0  2  0  0  0  0  0  0  0  0  0
    1.1670   56.5660   72.6200 C   0  0  0  0  0  0  0  0  0  0  0  0
    2.2880   57.4620   72.0620 C   0  0  0  0  0  0  0  0  0  0  0  0
    2.5100   58.7090   72.9320 C   0  0  1  0  0  0  0  0  0  0  0  0
    2.8080   58.2310   74.3720 C   0  0  1  0  0  0  0  0  0  0  0  0
    3.3200   59.4900   75.0630 C   0  0  0  0  0  0  0  0  0  0  0  0
    4.1530   60.1940   73.9740 C   0  0  0  0  0  0  0  0  0  0  0  0
    3.8300   59.4660   72.6470 C   0  0  2  0  0  0  0  0  0  0  0  0
    1.2760   59.6400   72.8280 C   0  0  0  0  0  0  0  0  0  0  0  0
   -1.1460   56.0300   74.6780 C   0  0  0  0  0  0  0  0  0  0  0  0
    3.8630   60.3080   71.3720 C   0  0  0  0  0  0  0  0  0  0  0  0
    4.1620   59.7890   70.2990 O   0  0  0  0  0  0  0  0  0  0  0  0
    3.4960   61.6260   71.4980 N   0  0  0  0  0  0  0  0  0  0  0  0
    3.3910   62.5810   70.3830 C   0  0  0  0  0  0  0  0  0  0  0  0
    4.7680   63.1540   70.0110 C   0  0  0  0  0  0  0  0  0  0  0  0
    2.4940   63.7470   70.8410 C   0  0  0  0  0  0  0  0  0  0  0  0
    2.7410   61.9210   69.1570 C   0  0  0  0  0  0  0  0  0  0  0  0
   -0.4411   51.9195   74.0664 H   0  0  0  0  0  0  0  0  0  0  0  0
    0.1766   53.9407   72.9052 H   0  0  0  0  0  0  0  0  0  0  0  0
    1.6350   54.4659   76.1176 H   0  0  0  0  0  0  0  0  0  0  0  0
   -0.6593   54.1615   77.7128 H   0  0  0  0  0  0  0  0  0  0  0  0
   -0.0891   56.7406   77.1259 H   0  0  0  0  0  0  0  0  0  0  0  0
    1.1733   55.8589   78.0618 H   0  0  0  0  0  0  0  0  0  0  0  0
    1.9948   58.0025   77.0525 H   0  0  0  0  0  0  0  0  0  0  0  0
    2.8820   56.5214   76.4777 H   0  0  0  0  0  0  0  0  0  0  0  0
    0.7437   58.0862   75.0147 H   0  0  0  0  0  0  0  0  0  0  0  0
    2.2590   55.5438   74.1288 H   0  0  0  0  0  0  0  0  0  0  0  0
    1.1325   55.6405   72.0265 H   0  0  0  0  0  0  0  0  0  0  0  0
    0.2301   57.1385   72.5527 H   0  0  0  0  0  0  0  0  0  0  0  0
    3.2222   56.8823   72.0261 H   0  0  0  0  0  0  0  0  0  0  0  0
    1.9900   57.7956   71.0571 H   0  0  0  0  0  0  0  0  0  0  0  0
    3.5766   57.4491   74.4614 H   0  0  0  0  0  0  0  0  0  0  0  0
    2.4836   60.1258   75.3889 H   0  0  0  0  0  0  0  0  0  0  0  0
    3.9033   59.2705   75.9694 H   0  0  0  0  0  0  0  0  0  0  0  0
    3.8720   61.2553   73.9052 H   0  0  0  0  0  0  0  0  0  0  0  0
    5.2283   60.1537   74.2024 H   0  0  0  0  0  0  0  0  0  0  0  0
    4.6404   58.7728   72.3771 H   0  0  0  0  0  0  0  0  0  0  0  0
    0.9284   59.9023   73.8381 H   0  0  0  0  0  0  0  0  0  0  0  0
    1.5527   60.5564   72.2860 H   0  0  0  0  0  0  0  0  0  0  0  0
    0.4708   59.1224   72.2860 H   0  0  0  0  0  0  0  0  0  0  0  0
   -1.4962   56.2164   75.7040 H   0  0  0  0  0  0  0  0  0  0  0  0
   -1.0343   56.9880   74.1490 H   0  0  0  0  0  0  0  0  0  0  0  0
   -1.8782   55.4023   74.1490 H   0  0  0  0  0  0  0  0  0  0  0  0
    3.2780   61.9716   72.4435 H   0  0  0  0  0  0  0  0  0  0  0  0
    5.3282   63.3871   70.9285 H   0  0  0  0  0  0  0  0  0  0  0  0
    5.3257   62.4133   69.4191 H   0  0  0  0  0  0  0  0  0  0  0  0
    4.6356   64.0717   69.4191 H   0  0  0  0  0  0  0  0  0  0  0  0
    2.4685   63.7801   71.9402 H   0  0  0  0  0  0  0  0  0  0  0  0
    2.8984   64.6943   70.4549 H   0  0  0  0  0  0  0  0  0  0  0  0
    1.4747   63.5990   70.4549 H   0  0  0  0  0  0  0  0  0  0  0  0
    2.0053   61.1740   69.4897 H   0  0  0  0  0  0  0  0  0  0  0  0
    2.2363   62.6885   68.5518 H   0  0  0  0  0  0  0  0  0  0  0  0
    3.5161   61.4281   68.5518 H   0  0  0  0  0  0  0  0  0  0  0  0
  2  1  2  0
  3  2  1  0
  4  3  2  0
  5  4  1  0
  6  5  1  0
  7  2  1  0
  7  6  1  0
  8  6  1  0
  9  8  1  0
 10  9  1  0
 11 10  1  0
 11  5  1  0
 12 11  1  0
 13 12  1  0
 14 13  1  0
 15 14  1  0
 15 10  1  0
 16 15  1  0
 17 16  1  0
 18 17  1  0
 18 14  1  0
 14 19  1  1
  5 20  1  1
 21 18  1  0
 22 21  2  0
 23 21  1  0
 24 23  1  0
 25 24  1  0
 26 24  1  0
 27 24  1  0
  3 28  1  0
  4 29  1  0
  6 30  1  6
  7 31  1  0
  8 32  1  0
  8 33  1  0
  9 34  1  0
  9 35  1  0
 10 36  1  1
 11 37  1  6
 12 38  1  0
 12 39  1  0
 13 40  1  0
 13 41  1  0
 15 42  1  6
 16 43  1  0
 16 44  1  0
 17 45  1  0
 17 46  1  0
 18 47  1  6
 19 48  1  0
 19 49  1  0
 19 50  1  0
 20 51  1  0
 20 52  1  0
 20 53  1  0
 23 54  1  0
 25 55  1  0
 25 56  1  0
 25 57  1  0
 26 58  1  0
 26 59  1  0
 26 60  1  0
 27 61  1  0
 27 62  1  0
 27 63  1  0
M  END
>  <score>  (4) 
-8.543

$$$$
=
     RDKit          3D

 63 66  0  0  0  0  0  0  0  0999 V2000
    0.8930   67.4840   69.1570 O   0  0  0  0  0  0  0  0  0  0  0  0
    1.0090   66.4500   69.8010 C   0  0  0  0  0  0  0  0  0  0  0  0
    0.2050   66.2030   71.0270 C   0  0  0  0  0  0  0  0  0  0  0  0
    0.2150   65.0130   71.6510 C   0  0  0  0  0  0  0  0  0  0  0  0
    1.0650   63.8440   71.1590 C   0  0  1  0  0  0  0  0  0  0  0  0
    2.2950   64.4710   70.4240 C   0  0  2  0  0  0  0  0  0  0  0  0
    1.8830   65.4560   69.4430 N   0  0  0  0  0  0  0  0  0  0  0  0
    3.2350   63.4200   69.8410 C   0  0  0  0  0  0  0  0  0  0  0  0
    3.7620   62.5090   70.9490 C   0  0  0  0  0  0  0  0  0  0  0  0
    2.6330   61.8760   71.7790 C   0  0  2  0  0  0  0  0  0  0  0  0
    1.6320   62.9530   72.3200 C   0  0  2  0  0  0  0  0  0  0  0  0
    0.5490   62.3150   73.2340 C   0  0  0  0  0  0  0  0  0  0  0  0
    1.1340   61.4180   74.3400 C   0  0  0  0  0  0  0  0  0  0  0  0
    2.0850   60.3540   73.7710 C   0  0  1  0  0  0  0  0  0  0  0  0
    3.1860   61.0860   72.9700 C   0  0  1  0  0  0  0  0  0  0  0  0
    4.2290   60.0000   72.7280 C   0  0  0  0  0  0  0  0  0  0  0  0
    4.2180   59.1820   74.0350 C   0  0  0  0  0  0  0  0  0  0  0  0
    2.9740   59.6530   74.8260 C   0  0  2  0  0  0  0  0  0  0  0  0
    1.2770   59.3350   72.9280 C   0  0  0  0  0  0  0  0  0  0  0  0
    0.1670   63.0280   70.1980 C   0  0  0  0  0  0  0  0  0  0  0  0
    2.2830   58.6130   75.7070 C   0  0  0  0  0  0  0  0  0  0  0  0
    1.5970   58.9720   76.6610 O   0  0  0  0  0  0  0  0  0  0  0  0
    2.4330   57.2980   75.3370 N   0  0  0  0  0  0  0  0  0  0  0  0
    1.7910   56.1550   76.0060 C   0  0  0  0  0  0  0  0  0  0  0  0
    2.2290   56.0530   77.4760 C   0  0  0  0  0  0  0  0  0  0  0  0
    2.2350   54.8700   75.2820 C   0  0  0  0  0  0  0  0  0  0  0  0
    0.2600   56.2580   75.9150 C   0  0  0  0  0  0  0  0  0  0  0  0
   -0.4144   67.0159   71.4340 H   0  0  0  0  0  0  0  0  0  0  0  0
   -0.4099   64.8765   72.5459 H   0  0  0  0  0  0  0  0  0  0  0  0
    2.8836   65.0024   71.1864 H   0  0  0  0  0  0  0  0  0  0  0  0
    2.2458   65.4092   68.4801 H   0  0  0  0  0  0  0  0  0  0  0  0
    2.6895   62.8148   69.1020 H   0  0  0  0  0  0  0  0  0  0  0  0
    4.0843   63.9265   69.3591 H   0  0  0  0  0  0  0  0  0  0  0  0
    4.3566   61.7047   70.4912 H   0  0  0  0  0  0  0  0  0  0  0  0
    4.3696   63.1258   71.6275 H   0  0  0  0  0  0  0  0  0  0  0  0
    2.1005   61.1949   71.0989 H   0  0  0  0  0  0  0  0  0  0  0  0
    2.1816   63.6482   72.9716 H   0  0  0  0  0  0  0  0  0  0  0  0
   -0.0270   63.1231   73.7086 H   0  0  0  0  0  0  0  0  0  0  0  0
   -0.0793   61.6761   72.5960 H   0  0  0  0  0  0  0  0  0  0  0  0
    1.6889   62.0470   75.0517 H   0  0  0  0  0  0  0  0  0  0  0  0
    0.2999   60.8998   74.8357 H   0  0  0  0  0  0  0  0  0  0  0  0
    3.6723   61.9233   73.4919 H   0  0  0  0  0  0  0  0  0  0  0  0
    3.9485   59.3715   71.8699 H   0  0  0  0  0  0  0  0  0  0  0  0
    5.2221   60.4092   72.4905 H   0  0  0  0  0  0  0  0  0  0  0  0
    4.1443   58.1073   73.8121 H   0  0  0  0  0  0  0  0  0  0  0  0
    5.1422   59.3340   74.6119 H   0  0  0  0  0  0  0  0  0  0  0  0
    3.2644   60.3462   75.6292 H   0  0  0  0  0  0  0  0  0  0  0  0
    0.7353   58.6519   73.5988 H   0  0  0  0  0  0  0  0  0  0  0  0
    0.5573   59.8730   72.2934 H   0  0  0  0  0  0  0  0  0  0  0  0
    1.9648   58.7569   72.2934 H   0  0  0  0  0  0  0  0  0  0  0  0
   -0.5223   62.4017   70.7833 H   0  0  0  0  0  0  0  0  0  0  0  0
   -0.4115   63.7159   69.5639 H   0  0  0  0  0  0  0  0  0  0  0  0
    0.7966   62.3865   69.5639 H   0  0  0  0  0  0  0  0  0  0  0  0
    3.0409   57.0971   74.5302 H   0  0  0  0  0  0  0  0  0  0  0  0
    1.3676   56.2536   78.1300 H   0  0  0  0  0  0  0  0  0  0  0  0
    2.6127   55.0415   77.6749 H   0  0  0  0  0  0  0  0  0  0  0  0
    3.0201   56.7909   77.6749 H   0  0  0  0  0  0  0  0  0  0  0  0
    2.4999   54.1034   76.0250 H   0  0  0  0  0  0  0  0  0  0  0  0
    1.4122   54.5012   74.6520 H   0  0  0  0  0  0  0  0  0  0  0  0
    3.1100   55.0878   74.6520 H   0  0  0  0  0  0  0  0  0  0  0  0
   -0.1665   56.2867   76.9286 H   0  0  0  0  0  0  0  0  0  0  0  0
   -0.0143   57.1766   75.3757 H   0  0  0  0  0  0  0  0  0  0  0  0
   -0.1349   55.3844   75.3757 H   0  0  0  0  0  0  0  0  0  0  0  0
  2  1  2  0
  3  2  1  0
  4  3  2  0
  5  4  1  0
  6  5  1  0
  7  2  1  0
  7  6  1  0
  8  6  1  0
  9  8  1  0
 10  9  1  0
 11 10  1  0
 11  5  1  0
 12 11  1  0
 13 12  1  0
 14 13  1  0
 15 14  1  0
 15 10  1  0
 16 15  1  0
 17 16  1  0
 18 17  1  0
 18 14  1  0
 14 19  1  6
  5 20  1  6
 21 18  1  0
 22 21  2  0
 23 21  1  0
 24 23  1  0
 25 24  1  0
 26 24  1  0
 27 24  1  0
  3 28  1  0
  4 29  1  0
  6 30  1  1
  7 31  1  0
  8 32  1  0
  8 33  1  0
  9 34  1  0
  9 35  1  0
 10 36  1  6
 11 37  1  1
 12 38  1  0
 12 39  1  0
 13 40  1  0
 13 41  1  0
 15 42  1  1
 16 43  1  0
 16 44  1  0
 17 45  1  0
 17 46  1  0
 18 47  1  1
 19 48  1  0
 19 49  1  0
 19 50  1  0
 20 51  1  0
 20 52  1  0
 20 53  1  0
 23 54  1  0
 25 55  1  0
 25 56  1  0
 25 57  1  0
 26 58  1  0
 26 59  1  0
 26 60  1  0
 27 61  1  0
 27 62  1  0
 27 63  1  0
M  END
>  <score>  (5) 
-8.439

$$$$
=
     RDKit          3D

 63 66  0  0  0  0  0  0  0  0999 V2000
    3.7710   63.4610   68.0470 O   0  0  0  0  0  0  0  0  0  0  0  0
    3.3430   62.7610   68.9560 C   0  0  0  0  0  0  0  0  0  0  0  0
    3.7850   61.3520   69.1250 C   0  0  0  0  0  0  0  0  0  0  0  0
    3.4400   60.6280   70.2030 C   0  0  0  0  0  0  0  0  0  0  0  0
    2.5570   61.1920   71.3130 C   0  0  1  0  0  0  0  0  0  0  0  0
    1.6510   62.2790   70.6470 C   0  0  2  0  0  0  0  0  0  0  0  0
    2.4340   63.2210   69.8720 N   0  0  0  0  0  0  0  0  0  0  0  0
    0.7210   62.9660   71.6430 C   0  0  0  0  0  0  0  0  0  0  0  0
   -0.1900   61.9380   72.3110 C   0  0  0  0  0  0  0  0  0  0  0  0
    0.5960   60.7860   72.9580 C   0  0  2  0  0  0  0  0  0  0  0  0
    1.5980   60.1250   71.9500 C   0  0  2  0  0  0  0  0  0  0  0  0
    2.3180   58.9030   72.5830 C   0  0  0  0  0  0  0  0  0  0  0  0
    1.3540   57.8930   73.2320 C   0  0  0  0  0  0  0  0  0  0  0  0
    0.4090   58.5690   74.2370 C   0  0  1  0  0  0  0  0  0  0  0  0
   -0.3410   59.6970   73.4930 C   0  0  1  0  0  0  0  0  0  0  0  0
   -1.4560   60.0790   74.4620 C   0  0  0  0  0  0  0  0  0  0  0  0
   -1.8830   58.7340   75.0790 C   0  0  0  0  0  0  0  0  0  0  0  0
   -0.8030   57.7060   74.6620 C   0  0  2  0  0  0  0  0  0  0  0  0
    1.2220   59.0640   75.4600 C   0  0  0  0  0  0  0  0  0  0  0  0
    3.5160   61.7990   72.3650 C   0  0  0  0  0  0  0  0  0  0  0  0
   -0.5140   56.5730   75.6450 C   0  0  0  0  0  0  0  0  0  0  0  0
    0.0130   55.5350   75.2500 O   0  0  0  0  0  0  0  0  0  0  0  0
   -0.8240   56.8090   76.9630 N   0  0  0  0  0  0  0  0  0  0  0  0
   -0.5550   55.8790   78.0710 C   0  0  0  0  0  0  0  0  0  0  0  0
    0.9200   55.4490   78.0920 C   0  0  0  0  0  0  0  0  0  0  0  0
   -1.4190   54.6220   77.8540 C   0  0  0  0  0  0  0  0  0  0  0  0
   -0.9440   56.5070   79.4190 C   0  0  0  0  0  0  0  0  0  0  0  0
    4.4108   60.8899   68.3473 H   0  0  0  0  0  0  0  0  0  0  0  0
    3.8061   59.5942   70.2885 H   0  0  0  0  0  0  0  0  0  0  0  0
    0.9897   61.7539   69.9420 H   0  0  0  0  0  0  0  0  0  0  0  0
    2.3073   64.2339   70.0096 H   0  0  0  0  0  0  0  0  0  0  0  0
    1.3227   63.4722   72.4122 H   0  0  0  0  0  0  0  0  0  0  0  0
    0.1011   63.7000   71.1073 H   0  0  0  0  0  0  0  0  0  0  0  0
   -0.7803   62.4432   73.0897 H   0  0  0  0  0  0  0  0  0  0  0  0
   -0.8342   61.5060   71.5310 H   0  0  0  0  0  0  0  0  0  0  0  0
    1.1591   61.2320   73.7911 H   0  0  0  0  0  0  0  0  0  0  0  0
    1.0275   59.7125   71.1048 H   0  0  0  0  0  0  0  0  0  0  0  0
    2.8856   58.3863   71.7951 H   0  0  0  0  0  0  0  0  0  0  0  0
    2.9698   59.2881   73.3810 H   0  0  0  0  0  0  0  0  0  0  0  0
    0.7530   57.4172   72.4430 H   0  0  0  0  0  0  0  0  0  0  0  0
    1.9545   57.1487   73.7755 H   0  0  0  0  0  0  0  0  0  0  0  0
   -0.7977   59.4088   72.5347 H   0  0  0  0  0  0  0  0  0  0  0  0
   -1.0837   60.7651   75.2370 H   0  0  0  0  0  0  0  0  0  0  0  0
   -2.2873   60.6038   73.9685 H   0  0  0  0  0  0  0  0  0  0  0  0
   -1.9297   58.8148   76.1750 H   0  0  0  0  0  0  0  0  0  0  0  0
   -2.8811   58.4313   74.7295 H   0  0  0  0  0  0  0  0  0  0  0  0
   -1.1610   57.0808   73.8308 H   0  0  0  0  0  0  0  0  0  0  0  0
    0.7153   58.7555   76.3863 H   0  0  0  0  0  0  0  0  0  0  0  0
    2.2310   58.6268   75.4309 H   0  0  0  0  0  0  0  0  0  0  0  0
    1.2968   60.1611   75.4309 H   0  0  0  0  0  0  0  0  0  0  0  0
    3.1475   61.5658   73.3749 H   0  0  0  0  0  0  0  0  0  0  0  0
    4.5214   61.3724   72.2340 H   0  0  0  0  0  0  0  0  0  0  0  0
    3.5607   62.8903   72.2340 H   0  0  0  0  0  0  0  0  0  0  0  0
   -1.2788   57.7042   77.1924 H   0  0  0  0  0  0  0  0  0  0  0  0
    1.2584   55.3504   79.1340 H   0  0  0  0  0  0  0  0  0  0  0  0
    1.0274   54.4822   77.5785 H   0  0  0  0  0  0  0  0  0  0  0  0
    1.5302   56.2067   77.5785 H   0  0  0  0  0  0  0  0  0  0  0  0
   -1.7074   54.2025   78.8291 H   0  0  0  0  0  0  0  0  0  0  0  0
   -2.3234   54.8918   77.2890 H   0  0  0  0  0  0  0  0  0  0  0  0
   -0.8431   53.8743   77.2890 H   0  0  0  0  0  0  0  0  0  0  0  0
   -0.5579   55.8836   80.2389 H   0  0  0  0  0  0  0  0  0  0  0  0
   -0.5127   57.5163   79.4913 H   0  0  0  0  0  0  0  0  0  0  0  0
   -2.0398   56.5704   79.4913 H   0  0  0  0  0  0  0  0  0  0  0  0
  2  1  2  0
  3  2  1  0
  4  3  2  0
  5  4  1  0
  6  5  1  0
  7  2  1  0
  7  6  1  0
  8  6  1  0
  9  8  1  0
 10  9  1  0
 11 10  1  0
 11  5  1  0
 12 11  1  0
 13 12  1  0
 14 13  1  0
 15 14  1  0
 15 10  1  0
 16 15  1  0
 17 16  1  0
 18 17  1  0
 18 14  1  0
 14 19  1  1
  5 20  1  1
 21 18  1  0
 22 21  2  0
 23 21  1  0
 24 23  1  0
 25 24  1  0
 26 24  1  0
 27 24  1  0
  3 28  1  0
  4 29  1  0
  6 30  1  6
  7 31  1  0
  8 32  1  0
  8 33  1  0
  9 34  1  0
  9 35  1  0
 10 36  1  1
 11 37  1  6
 12 38  1  0
 12 39  1  0
 13 40  1  0
 13 41  1  0
 15 42  1  6
 16 43  1  0
 16 44  1  0
 17 45  1  0
 17 46  1  0
 18 47  1  6
 19 48  1  0
 19 49  1  0
 19 50  1  0
 20 51  1  0
 20 52  1  0
 20 53  1  0
 23 54  1  0
 25 55  1  0
 25 56  1  0
 25 57  1  0
 26 58  1  0
 26 59  1  0
 26 60  1  0
 27 61  1  0
 27 62  1  0
 27 63  1  0
M  END
>  <score>  (6) 
-8.355

$$$$
=
     RDKit          3D

 63 66  0  0  0  0  0  0  0  0999 V2000
    0.9220   67.4360   69.1880 O   0  0  0  0  0  0  0  0  0  0  0  0
    1.0290   66.4010   69.8300 C   0  0  0  0  0  0  0  0  0  0  0  0
    0.2280   66.1630   71.0590 C   0  0  0  0  0  0  0  0  0  0  0  0
    0.2260   64.9720   71.6820 C   0  0  0  0  0  0  0  0  0  0  0  0
    1.0590   63.7930   71.1860 C   0  0  1  0  0  0  0  0  0  0  0  0
    2.2930   64.4050   70.4450 C   0  0  2  0  0  0  0  0  0  0  0  0
    1.8890   65.3960   69.4670 N   0  0  0  0  0  0  0  0  0  0  0  0
    3.2180   63.3430   69.8570 C   0  0  0  0  0  0  0  0  0  0  0  0
    3.7390   62.4260   70.9620 C   0  0  0  0  0  0  0  0  0  0  0  0
    2.6060   61.8050   71.7960 C   0  0  2  0  0  0  0  0  0  0  0  0
    1.6200   62.8950   72.3430 C   0  0  2  0  0  0  0  0  0  0  0  0
    0.5350   62.2690   73.2620 C   0  0  0  0  0  0  0  0  0  0  0  0
    1.1140   61.3640   74.3640 C   0  0  0  0  0  0  0  0  0  0  0  0
    2.0480   60.2880   73.7900 C   0  0  1  0  0  0  0  0  0  0  0  0
    3.1550   61.0080   72.9850 C   0  0  1  0  0  0  0  0  0  0  0  0
    4.1830   59.9090   72.7370 C   0  0  0  0  0  0  0  0  0  0  0  0
    4.1680   59.0900   74.0430 C   0  0  0  0  0  0  0  0  0  0  0  0
    2.9330   59.5760   74.8410 C   0  0  2  0  0  0  0  0  0  0  0  0
    1.2240   59.2800   72.9500 C   0  0  0  0  0  0  0  0  0  0  0  0
    0.1470   62.9890   70.2290 C   0  0  0  0  0  0  0  0  0  0  0  0
    2.2340   58.5430   75.7240 C   0  0  0  0  0  0  0  0  0  0  0  0
    2.3450   57.3450   75.4770 O   0  0  0  0  0  0  0  0  0  0  0  0
    1.5410   59.0300   76.8070 N   0  0  0  0  0  0  0  0  0  0  0  0
    0.8640   58.2010   77.8160 C   0  0  0  0  0  0  0  0  0  0  0  0
    0.1410   59.0700   78.8570 C   0  0  0  0  0  0  0  0  0  0  0  0
    1.9370   57.3710   78.5450 C   0  0  0  0  0  0  0  0  0  0  0  0
   -0.1290   57.2330   77.1520 C   0  0  0  0  0  0  0  0  0  0  0  0
   -0.3792   66.9832   71.4696 H   0  0  0  0  0  0  0  0  0  0  0  0
   -0.3968   64.8426   72.5794 H   0  0  0  0  0  0  0  0  0  0  0  0
    2.8916   64.9284   71.2051 H   0  0  0  0  0  0  0  0  0  0  0  0
    2.2467   65.3455   68.5024 H   0  0  0  0  0  0  0  0  0  0  0  0
    2.6619   62.7445   69.1204 H   0  0  0  0  0  0  0  0  0  0  0  0
    4.0709   63.8395   69.3711 H   0  0  0  0  0  0  0  0  0  0  0  0
    4.3229   61.6154   70.5015 H   0  0  0  0  0  0  0  0  0  0  0  0
    4.3561   63.0356   71.6385 H   0  0  0  0  0  0  0  0  0  0  0  0
    2.0629   61.1304   71.1178 H   0  0  0  0  0  0  0  0  0  0  0  0
    2.1804   63.5840   72.9921 H   0  0  0  0  0  0  0  0  0  0  0  0
   -0.0288   63.0835   73.7404 H   0  0  0  0  0  0  0  0  0  0  0  0
   -0.1037   61.6380   72.6264 H   0  0  0  0  0  0  0  0  0  0  0  0
    1.6808   61.9853   75.0731 H   0  0  0  0  0  0  0  0  0  0  0  0
    0.2757   60.8563   74.8635 H   0  0  0  0  0  0  0  0  0  0  0  0
    3.6536   61.8388   73.5058 H   0  0  0  0  0  0  0  0  0  0  0  0
    3.8904   59.2849   71.8797 H   0  0  0  0  0  0  0  0  0  0  0  0
    5.1800   60.3058   72.4951 H   0  0  0  0  0  0  0  0  0  0  0  0
    4.0797   58.0166   73.8194 H   0  0  0  0  0  0  0  0  0  0  0  0
    5.0968   59.2299   74.6156 H   0  0  0  0  0  0  0  0  0  0  0  0
    3.2346   60.2653   75.6434 H   0  0  0  0  0  0  0  0  0  0  0  0
    0.6731   58.6061   73.6227 H   0  0  0  0  0  0  0  0  0  0  0  0
    0.5116   59.8276   72.3155 H   0  0  0  0  0  0  0  0  0  0  0  0
    1.9023   58.6907   72.3155 H   0  0  0  0  0  0  0  0  0  0  0  0
   -0.5503   62.3743   70.8171 H   0  0  0  0  0  0  0  0  0  0  0  0
   -0.4225   63.6843   69.5948 H   0  0  0  0  0  0  0  0  0  0  0  0
    0.7654   62.3368   69.5948 H   0  0  0  0  0  0  0  0  0  0  0  0
    1.4922   60.0526   76.9204 H   0  0  0  0  0  0  0  0  0  0  0  0
    0.4178   58.7373   79.8683 H   0  0  0  0  0  0  0  0  0  0  0  0
    0.4343   60.1218   78.7239 H   0  0  0  0  0  0  0  0  0  0  0  0
   -0.9466   58.9729   78.7239 H   0  0  0  0  0  0  0  0  0  0  0  0
    1.8042   57.4738   79.6321 H   0  0  0  0  0  0  0  0  0  0  0  0
    1.8371   56.3128   78.2618 H   0  0  0  0  0  0  0  0  0  0  0  0
    2.9362   57.7336   78.2618 H   0  0  0  0  0  0  0  0  0  0  0  0
   -0.6865   56.6895   77.9290 H   0  0  0  0  0  0  0  0  0  0  0  0
   -0.8324   57.8016   76.5260 H   0  0  0  0  0  0  0  0  0  0  0  0
    0.4215   56.5153   76.5260 H   0  0  0  0  0  0  0  0  0  0  0  0
  2  1  2  0
  3  2  1  0
  4  3  2  0
  5  4  1  0
  6  5  1  0
  7  2  1  0
  7  6  1  0
  8  6  1  0
  9  8  1  0
 10  9  1  0
 11 10  1  0
 11  5  1  0
 12 11  1  0
 13 12  1  0
 14 13  1  0
 15 14  1  0
 15 10  1  0
 16 15  1  0
 17 16  1  0
 18 17  1  0
 18 14  1  0
 14 19  1  6
  5 20  1  6
 21 18  1  0
 22 21  2  0
 23 21  1  0
 24 23  1  0
 25 24  1  0
 26 24  1  0
 27 24  1  0
  3 28  1  0
  4 29  1  0
  6 30  1  1
  7 31  1  0
  8 32  1  0
  8 33  1  0
  9 34  1  0
  9 35  1  0
 10 36  1  6
 11 37  1  1
 12 38  1  0
 12 39  1  0
 13 40  1  0
 13 41  1  0
 15 42  1  1
 16 43  1  0
 16 44  1  0
 17 45  1  0
 17 46  1  0
 18 47  1  1
 19 48  1  0
 19 49  1  0
 19 50  1  0
 20 51  1  0
 20 52  1  0
 20 53  1  0
 23 54  1  0
 25 55  1  0
 25 56  1  0
 25 57  1  0
 26 58  1  0
 26 59  1  0
 26 60  1  0
 27 61  1  0
 27 62  1  0
 27 63  1  0
M  END
>  <score>  (7) 
-7.797

$$$$
=
     RDKit          3D

 63 66  0  0  0  0  0  0  0  0999 V2000
    4.6430   61.0920   69.8550 O   0  0  0  0  0  0  0  0  0  0  0  0
    3.7380   60.8080   70.6270 C   0  0  0  0  0  0  0  0  0  0  0  0
    3.5470   59.4200   71.1230 C   0  0  0  0  0  0  0  0  0  0  0  0
    2.6550   59.1290   72.0850 C   0  0  0  0  0  0  0  0  0  0  0  0
    1.7650   60.1950   72.7170 C   0  0  1  0  0  0  0  0  0  0  0  0
    1.5720   61.3090   71.6360 C   0  0  2  0  0  0  0  0  0  0  0  0
    2.8420   61.7390   71.0850 N   0  0  0  0  0  0  0  0  0  0  0  0
    0.7210   62.4750   72.1320 C   0  0  0  0  0  0  0  0  0  0  0  0
   -0.6620   61.9790   72.5490 C   0  0  0  0  0  0  0  0  0  0  0  0
   -0.5940   60.8380   73.5770 C   0  0  2  0  0  0  0  0  0  0  0  0
    0.3340   59.6710   73.0940 C   0  0  2  0  0  0  0  0  0  0  0  0
    0.3220   58.4830   74.0940 C   0  0  0  0  0  0  0  0  0  0  0  0
   -1.0950   58.0150   74.4720 C   0  0  0  0  0  0  0  0  0  0  0  0
   -1.9670   59.1780   74.9720 C   0  0  1  0  0  0  0  0  0  0  0  0
   -1.9840   60.2610   73.8700 C   0  0  1  0  0  0  0  0  0  0  0  0
   -3.1040   61.1970   74.3120 C   0  0  0  0  0  0  0  0  0  0  0  0
   -4.1670   60.2470   74.8980 C   0  0  0  0  0  0  0  0  0  0  0  0
   -3.4820   58.8660   75.0340 C   0  0  2  0  0  0  0  0  0  0  0  0
   -1.4250   59.6830   76.3330 C   0  0  0  0  0  0  0  0  0  0  0  0
    2.5270   60.7170   73.9600 C   0  0  0  0  0  0  0  0  0  0  0  0
   -3.9420   57.9800   76.1910 C   0  0  0  0  0  0  0  0  0  0  0  0
   -3.5790   56.8070   76.2500 O   0  0  0  0  0  0  0  0  0  0  0  0
   -4.7170   58.5800   77.1530 N   0  0  0  0  0  0  0  0  0  0  0  0
   -5.1980   57.9220   78.3790 C   0  0  0  0  0  0  0  0  0  0  0  0
   -6.0970   56.7190   78.0480 C   0  0  0  0  0  0  0  0  0  0  0  0
   -6.0360   58.9450   79.1690 C   0  0  0  0  0  0  0  0  0  0  0  0
   -4.0200   57.4770   79.2590 C   0  0  0  0  0  0  0  0  0  0  0  0
    4.1520   58.6092   70.6910 H   0  0  0  0  0  0  0  0  0  0  0  0
    2.5635   58.0879   72.4281 H   0  0  0  0  0  0  0  0  0  0  0  0
    0.9995   60.8577   70.8122 H   0  0  0  0  0  0  0  0  0  0  0  0
    3.0708   62.7422   71.0377 H   0  0  0  0  0  0  0  0  0  0  0  0
    1.2148   62.9434   72.9962 H   0  0  0  0  0  0  0  0  0  0  0  0
    0.6093   63.2086   71.3200 H   0  0  0  0  0  0  0  0  0  0  0  0
   -1.2194   62.8184   72.9903 H   0  0  0  0  0  0  0  0  0  0  0  0
   -1.1618   61.5891   71.6501 H   0  0  0  0  0  0  0  0  0  0  0  0
   -0.1757   61.2797   74.4935 H   0  0  0  0  0  0  0  0  0  0  0  0
   -0.0752   59.2597   72.1594 H   0  0  0  0  0  0  0  0  0  0  0  0
    0.8580   57.6378   73.6375 H   0  0  0  0  0  0  0  0  0  0  0  0
    0.8055   58.8322   75.0183 H   0  0  0  0  0  0  0  0  0  0  0  0
   -1.5706   57.5689   73.5861 H   0  0  0  0  0  0  0  0  0  0  0  0
   -1.0062   57.2803   75.2859 H   0  0  0  0  0  0  0  0  0  0  0  0
   -2.2127   59.9000   72.8564 H   0  0  0  0  0  0  0  0  0  0  0  0
   -2.7460   61.9033   75.0755 H   0  0  0  0  0  0  0  0  0  0  0  0
   -3.4926   61.8142   73.4885 H   0  0  0  0  0  0  0  0  0  0  0  0
   -4.4989   60.6069   75.8830 H   0  0  0  0  0  0  0  0  0  0  0  0
   -5.0559   60.1922   74.2524 H   0  0  0  0  0  0  0  0  0  0  0  0
   -3.7876   58.1974   74.2158 H   0  0  0  0  0  0  0  0  0  0  0  0
   -1.9632   59.1815   77.1509 H   0  0  0  0  0  0  0  0  0  0  0  0
   -0.3513   59.4559   76.4071 H   0  0  0  0  0  0  0  0  0  0  0  0
   -1.5758   60.7701   76.4071 H   0  0  0  0  0  0  0  0  0  0  0  0
    2.0207   60.3701   74.8729 H   0  0  0  0  0  0  0  0  0  0  0  0
    3.5584   60.3349   73.9450 H   0  0  0  0  0  0  0  0  0  0  0  0
    2.5432   61.8168   73.9450 H   0  0  0  0  0  0  0  0  0  0  0  0
   -4.9816   59.5645   77.0057 H   0  0  0  0  0  0  0  0  0  0  0  0
   -6.4450   56.2534   78.9819 H   0  0  0  0  0  0  0  0  0  0  0  0
   -6.9640   57.0592   77.4627 H   0  0  0  0  0  0  0  0  0  0  0  0
   -5.5251   55.9839   77.4627 H   0  0  0  0  0  0  0  0  0  0  0  0
   -5.8984   58.7771   80.2474 H   0  0  0  0  0  0  0  0  0  0  0  0
   -5.7092   59.9634   78.9119 H   0  0  0  0  0  0  0  0  0  0  0  0
   -7.0988   58.8251   78.9119 H   0  0  0  0  0  0  0  0  0  0  0  0
   -4.2946   57.5807   80.3191 H   0  0  0  0  0  0  0  0  0  0  0  0
   -3.7784   56.4256   79.0440 H   0  0  0  0  0  0  0  0  0  0  0  0
   -3.1436   58.1060   79.0440 H   0  0  0  0  0  0  0  0  0  0  0  0
  2  1  2  0
  3  2  1  0
  4  3  2  0
  5  4  1  0
  6  5  1  0
  7  2  1  0
  7  6  1  0
  8  6  1  0
  9  8  1  0
 10  9  1  0
 11 10  1  0
 11  5  1  0
 12 11  1  0
 13 12  1  0
 14 13  1  0
 15 14  1  0
 15 10  1  0
 16 15  1  0
 17 16  1  0
 18 17  1  0
 18 14  1  0
 14 19  1  1
  5 20  1  1
 21 18  1  0
 22 21  2  0
 23 21  1  0
 24 23  1  0
 25 24  1  0
 26 24  1  0
 27 24  1  0
  3 28  1  0
  4 29  1  0
  6 30  1  6
  7 31  1  0
  8 32  1  0
  8 33  1  0
  9 34  1  0
  9 35  1  0
 10 36  1  1
 11 37  1  6
 12 38  1  0
 12 39  1  0
 13 40  1  0
 13 41  1  0
 15 42  1  6
 16 43  1  0
 16 44  1  0
 17 45  1  0
 17 46  1  0
 18 47  1  6
 19 48  1  0
 19 49  1  0
 19 50  1  0
 20 51  1  0
 20 52  1  0
 20 53  1  0
 23 54  1  0
 25 55  1  0
 25 56  1  0
 25 57  1  0
 26 58  1  0
 26 59  1  0
 26 60  1  0
 27 61  1  0
 27 62  1  0
 27 63  1  0
M  END
>  <score>  (8) 
-7.714

$$$$
=
     RDKit          3D

 63 66  0  0  0  0  0  0  0  0999 V2000
   -8.8390   60.5470   75.9160 O   0  0  0  0  0  0  0  0  0  0  0  0
   -7.6390   60.4270   75.7080 C   0  0  0  0  0  0  0  0  0  0  0  0
   -6.9030   61.3750   74.8310 C   0  0  0  0  0  0  0  0  0  0  0  0
   -5.5640   61.3420   74.7200 C   0  0  0  0  0  0  0  0  0  0  0  0
   -4.7120   60.3190   75.4670 C   0  0  1  0  0  0  0  0  0  0  0  0
   -5.6160   59.0610   75.6800 C   0  0  2  0  0  0  0  0  0  0  0  0
   -6.8950   59.4180   76.2620 N   0  0  0  0  0  0  0  0  0  0  0  0
   -4.9100   57.9480   76.4480 C   0  0  0  0  0  0  0  0  0  0  0  0
   -3.6540   57.5040   75.7010 C   0  0  0  0  0  0  0  0  0  0  0  0
   -2.7090   58.6760   75.3880 C   0  0  2  0  0  0  0  0  0  0  0  0
   -3.4540   59.8470   74.6570 C   0  0  2  0  0  0  0  0  0  0  0  0
   -2.4730   60.9850   74.2610 C   0  0  0  0  0  0  0  0  0  0  0  0
   -1.2310   60.4850   73.5010 C   0  0  0  0  0  0  0  0  0  0  0  0
   -0.5080   59.3620   74.2610 C   0  0  1  0  0  0  0  0  0  0  0  0
   -1.5310   58.2310   74.5140 C   0  0  1  0  0  0  0  0  0  0  0  0
   -0.6620   57.0630   74.9690 C   0  0  0  0  0  0  0  0  0  0  0  0
    0.6050   57.1880   74.1000 C   0  0  0  0  0  0  0  0  0  0  0  0
    0.5240   58.5750   73.4170 C   0  0  2  0  0  0  0  0  0  0  0  0
    0.1200   59.9340   75.5560 C   0  0  0  0  0  0  0  0  0  0  0  0
   -4.3130   60.9820   76.8080 C   0  0  0  0  0  0  0  0  0  0  0  0
    1.8480   59.2840   73.1380 C   0  0  0  0  0  0  0  0  0  0  0  0
    2.8570   58.9740   73.7670 O   0  0  0  0  0  0  0  0  0  0  0  0
    1.8430   60.2200   72.1320 N   0  0  0  0  0  0  0  0  0  0  0  0
    3.0270   60.9570   71.6610 C   0  0  0  0  0  0  0  0  0  0  0  0
    4.1330   59.9950   71.1990 C   0  0  0  0  0  0  0  0  0  0  0  0
    3.5710   61.7840   72.8410 C   0  0  0  0  0  0  0  0  0  0  0  0
    2.6540   61.9220   70.5240 C   0  0  0  0  0  0  0  0  0  0  0  0
   -7.4694   62.1236   74.2575 H   0  0  0  0  0  0  0  0  0  0  0  0
   -5.0658   62.0761   74.0697 H   0  0  0  0  0  0  0  0  0  0  0  0
   -5.8219   58.6445   74.6830 H   0  0  0  0  0  0  0  0  0  0  0  0
   -7.2438   58.9144   77.0900 H   0  0  0  0  0  0  0  0  0  0  0  0
   -4.6279   58.3173   77.4450 H   0  0  0  0  0  0  0  0  0  0  0  0
   -5.5920   57.0903   76.5434 H   0  0  0  0  0  0  0  0  0  0  0  0
   -3.1151   56.7724   76.3209 H   0  0  0  0  0  0  0  0  0  0  0  0
   -3.9722   57.0666   74.7432 H   0  0  0  0  0  0  0  0  0  0  0  0
   -2.3347   59.0328   76.3589 H   0  0  0  0  0  0  0  0  0  0  0  0
   -3.8531   59.4711   73.7034 H   0  0  0  0  0  0  0  0  0  0  0  0
   -3.0093   61.7003   73.6202 H   0  0  0  0  0  0  0  0  0  0  0  0
   -2.1184   61.4472   75.1941 H   0  0  0  0  0  0  0  0  0  0  0  0
   -1.5450   60.1042   72.5179 H   0  0  0  0  0  0  0  0  0  0  0  0
   -0.5335   61.3289   73.3950 H   0  0  0  0  0  0  0  0  0  0  0  0
   -2.1089   57.9113   73.6343 H   0  0  0  0  0  0  0  0  0  0  0  0
   -0.4149   57.1511   76.0373 H   0  0  0  0  0  0  0  0  0  0  0  0
   -1.1625   56.0902   74.8545 H   0  0  0  0  0  0  0  0  0  0  0  0
    1.5060   57.1239   74.7278 H   0  0  0  0  0  0  0  0  0  0  0  0
    0.6641   56.3782   73.3579 H   0  0  0  0  0  0  0  0  0  0  0  0
    0.1957   58.4754   72.3719 H   0  0  0  0  0  0  0  0  0  0  0  0
   -0.3724   59.4855   76.4314 H   0  0  0  0  0  0  0  0  0  0  0  0
    1.1940   59.6974   75.5782 H   0  0  0  0  0  0  0  0  0  0  0  0
   -0.0156   61.0254   75.5782 H   0  0  0  0  0  0  0  0  0  0  0  0
   -4.6817   60.3694   77.6439 H   0  0  0  0  0  0  0  0  0  0  0  0
   -3.2174   61.0607   76.8664 H   0  0  0  0  0  0  0  0  0  0  0  0
   -4.7565   61.9870   76.8664 H   0  0  0  0  0  0  0  0  0  0  0  0
    0.9431   60.4210   71.6730 H   0  0  0  0  0  0  0  0  0  0  0  0
    4.6321   59.5609   72.0779 H   0  0  0  0  0  0  0  0  0  0  0  0
    3.6898   59.1901   70.5942 H   0  0  0  0  0  0  0  0  0  0  0  0
    4.8687   60.5455   70.5942 H   0  0  0  0  0  0  0  0  0  0  0  0
    3.2639   61.3171   73.7884 H   0  0  0  0  0  0  0  0  0  0  0  0
    4.6692   61.8192   72.7887 H   0  0  0  0  0  0  0  0  0  0  0  0
    3.1685   62.8064   72.7887 H   0  0  0  0  0  0  0  0  0  0  0  0
    2.2885   62.8677   70.9508 H   0  0  0  0  0  0  0  0  0  0  0  0
    3.5410   62.1182   69.9038 H   0  0  0  0  0  0  0  0  0  0  0  0
    1.8656   61.4706   69.9038 H   0  0  0  0  0  0  0  0  0  0  0  0
  2  1  2  0
  3  2  1  0
  4  3  2  0
  5  4  1  0
  6  5  1  0
  7  2  1  0
  7  6  1  0
  8  6  1  0
  9  8  1  0
 10  9  1  0
 11 10  1  0
 11  5  1  0
 12 11  1  0
 13 12  1  0
 14 13  1  0
 15 14  1  0
 15 10  1  0
 16 15  1  0
 17 16  1  0
 18 17  1  0
 18 14  1  0
 14 19  1  1
  5 20  1  1
 21 18  1  0
 22 21  2  0
 23 21  1  0
 24 23  1  0
 25 24  1  0
 26 24  1  0
 27 24  1  0
  3 28  1  0
  4 29  1  0
  6 30  1  6
  7 31  1  0
  8 32  1  0
  8 33  1  0
  9 34  1  0
  9 35  1  0
 10 36  1  1
 11 37  1  6
 12 38  1  0
 12 39  1  0
 13 40  1  0
 13 41  1  0
 15 42  1  6
 16 43  1  0
 16 44  1  0
 17 45  1  0
 17 46  1  0
 18 47  1  6
 19 48  1  0
 19 49  1  0
 19 50  1  0
 20 51  1  0
 20 52  1  0
 20 53  1  0
 23 54  1  0
 25 55  1  0
 25 56  1  0
 25 57  1  0
 26 58  1  0
 26 59  1  0
 26 60  1  0
 27 61  1  0
 27 62  1  0
 27 63  1  0
M  END
>  <score>  (9) 
-7.376

$$$$
