=
     RDKit          3D

 42 45  0  0  0  0  0  0  0  0999 V2000
    0.0420   68.7400   68.3760 F   0  0  0  0  0  0  0  0  0  0  0  0
    1.2400   68.8730   67.7830 C   0  0  0  0  0  0  0  0  0  0  0  0
    2.2150   69.5660   68.4890 C   0  0  0  0  0  0  0  0  0  0  0  0
    3.4680   69.7700   67.9100 C   0  0  0  0  0  0  0  0  0  0  0  0
    3.7680   69.2560   66.6370 C   0  0  0  0  0  0  0  0  0  0  0  0
    2.7560   68.5480   65.9600 C   0  0  0  0  0  0  0  0  0  0  0  0
    1.4580   68.3730   66.4840 C   0  0  0  0  0  0  0  0  0  0  0  0
    5.0560   69.4780   66.0760 N   0  0  0  0  0  0  0  0  0  0  0  0
    6.0260   70.0720   66.8640 C   0  0  0  0  0  0  0  0  0  0  0  0
    5.8320   70.6000   68.0790 C   0  0  0  0  0  0  0  0  0  0  0  0
    4.4830   70.5550   68.6570 C   0  0  0  0  0  0  0  0  0  0  0  0
    4.1400   71.1430   69.6750 O   0  0  0  0  0  0  0  0  0  0  0  0
    0.4880   67.7130   65.7050 N   0  0  0  0  0  0  0  0  0  0  0  0
   -0.9310   67.7470   66.1190 C   0  0  0  0  0  0  0  0  0  0  0  0
   -1.6740   68.9660   65.5290 C   0  0  0  0  0  0  0  0  0  0  0  0
   -1.4620   69.0390   64.0300 N   0  0  0  0  0  4  0  0  0  0  0  0
    0.0030   69.0300   63.6540 C   0  0  0  0  0  0  0  0  0  0  0  0
    0.6920   67.7810   64.2390 C   0  0  0  0  0  0  0  0  0  0  0  0
    7.0140   71.1910   68.8060 C   0  0  0  0  0  0  0  0  0  0  0  0
    7.4290   70.5090   69.7900 O   0  0  0  0  0  0  0  0  0  0  0  0
    7.3790   72.3330   68.4110 O   0  0  0  0  0  1  0  0  0  0  0  0
    5.4850   68.8630   64.8070 C   0  0  0  0  0  0  0  0  0  0  0  0
    4.5400   68.7030   63.6400 C   0  0  0  0  0  0  0  0  0  0  0  0
    5.6730   69.6770   63.5490 C   0  0  0  0  0  0  0  0  0  0  0  0
    2.0009   69.9511   69.4969 H   0  0  0  0  0  0  0  0  0  0  0  0
    2.9885   68.1114   64.9775 H   0  0  0  0  0  0  0  0  0  0  0  0
    7.0467   70.1141   66.4562 H   0  0  0  0  0  0  0  0  0  0  0  0
   -1.4248   66.8274   65.7720 H   0  0  0  0  0  0  0  0  0  0  0  0
   -0.9644   67.8254   67.2157 H   0  0  0  0  0  0  0  0  0  0  0  0
   -2.7496   68.8712   65.7388 H   0  0  0  0  0  0  0  0  0  0  0  0
   -1.2783   69.8828   65.9905 H   0  0  0  0  0  0  0  0  0  0  0  0
   -1.9212   68.2282   63.5911 H   0  0  0  0  0  0  0  0  0  0  0  0
   -1.8660   69.9266   63.6985 H   0  0  0  0  0  0  0  0  0  0  0  0
    0.0974   69.0180   62.5581 H   0  0  0  0  0  0  0  0  0  0  0  0
    0.4849   69.9311   64.0611 H   0  0  0  0  0  0  0  0  0  0  0  0
    0.2657   66.8807   63.7723 H   0  0  0  0  0  0  0  0  0  0  0  0
    1.7708   67.8412   64.0329 H   0  0  0  0  0  0  0  0  0  0  0  0
    6.1164   68.1854   65.4006 H   0  0  0  0  0  0  0  0  0  0  0  0
    4.5589   67.7810   63.0404 H   0  0  0  0  0  0  0  0  0  0  0  0
    3.4496   68.7665   63.5100 H   0  0  0  0  0  0  0  0  0  0  0  0
    6.5233   69.4697   62.8826 H   0  0  0  0  0  0  0  0  0  0  0  0
    5.7574   70.7506   63.3246 H   0  0  0  0  0  0  0  0  0  0  0  0
  2  1  1  0
  3  2  2  0
  4  3  1  0
  5  4  2  0
  6  5  1  0
  7  6  2  0
  7  2  1  0
  8  5  1  0
  9  8  1  0
 10  9  2  0
 11  4  1  0
 11 10  1  0
 12 11  2  0
 13  7  1  0
 14 13  1  0
 15 14  1  0
 16 15  1  0
 17 16  1  0
 18 17  1  0
 18 13  1  0
 19 10  1  0
 20 19  2  0
 21 19  1  0
 22  8  1  0
 23 22  1  0
 24 23  1  0
 24 22  1  0
  3 25  1  0
  6 26  1  0
  9 27  1  0
 14 28  1  0
 14 29  1  0
 15 30  1  0
 15 31  1  0
 16 32  1  0
 16 33  1  0
 17 34  1  0
 17 35  1  0
 18 36  1  0
 18 37  1  0
 22 38  1  0
 23 39  1  0
 23 40  1  0
 24 41  1  0
 24 42  1  0
M  CHG  2  16   1  21  -1
M  END
>  <score>  (1) 
-9.919

$$$$
=
     RDKit          3D

 42 45  0  0  0  0  0  0  0  0999 V2000
    4.7320   68.8640   62.1600 F   0  0  0  0  0  0  0  0  0  0  0  0
    4.3030   69.0370   63.4200 C   0  0  0  0  0  0  0  0  0  0  0  0
    5.2440   69.4610   64.3500 C   0  0  0  0  0  0  0  0  0  0  0  0
    4.8680   69.6220   65.6840 C   0  0  0  0  0  0  0  0  0  0  0  0
    3.5440   69.3930   66.0950 C   0  0  0  0  0  0  0  0  0  0  0  0
    2.6170   68.9770   65.1190 C   0  0  0  0  0  0  0  0  0  0  0  0
    2.9710   68.7440   63.7730 C   0  0  0  0  0  0  0  0  0  0  0  0
    3.1920   69.5700   67.4610 N   0  0  0  0  0  0  0  0  0  0  0  0
    4.1350   70.1030   68.3220 C   0  0  0  0  0  0  0  0  0  0  0  0
    5.4180   70.3430   68.0260 C   0  0  0  0  0  0  0  0  0  0  0  0
    5.8970   70.0280   66.6740 C   0  0  0  0  0  0  0  0  0  0  0  0
    7.0730   70.0430   66.3290 O   0  0  0  0  0  0  0  0  0  0  0  0
    1.9930   68.2590   62.8820 N   0  0  0  0  0  0  0  0  0  0  0  0
    0.7390   67.6830   63.4140 C   0  0  0  0  0  0  0  0  0  0  0  0
   -0.3530   68.7590   63.6050 C   0  0  0  0  0  0  0  0  0  0  0  0
   -0.5290   69.5650   62.3340 N   0  0  0  0  0  4  0  0  0  0  0  0
    0.7730   70.1580   61.8420 C   0  0  0  0  0  0  0  0  0  0  0  0
    1.8180   69.0440   61.6380 C   0  0  0  0  0  0  0  0  0  0  0  0
    6.3030   70.9490   69.0870 C   0  0  0  0  0  0  0  0  0  0  0  0
    6.0760   70.5410   70.2650 O   0  0  0  0  0  0  0  0  0  0  0  0
    7.0870   71.8540   68.6890 O   0  0  0  0  0  1  0  0  0  0  0  0
    1.8020   69.4740   67.9410 C   0  0  0  0  0  0  0  0  0  0  0  0
    0.7580   68.6710   67.2020 C   0  0  0  0  0  0  0  0  0  0  0  0
    1.2480   68.2010   68.5350 C   0  0  0  0  0  0  0  0  0  0  0  0
    6.2779   69.6683   64.0369 H   0  0  0  0  0  0  0  0  0  0  0  0
    1.5696   68.8270   65.4199 H   0  0  0  0  0  0  0  0  0  0  0  0
    3.8005   70.3515   69.3400 H   0  0  0  0  0  0  0  0  0  0  0  0
    0.3700   66.9227   62.7099 H   0  0  0  0  0  0  0  0  0  0  0  0
    0.9571   67.2401   64.3970 H   0  0  0  0  0  0  0  0  0  0  0  0
   -1.3046   68.2686   63.8578 H   0  0  0  0  0  0  0  0  0  0  0  0
   -0.0488   69.4357   64.4171 H   0  0  0  0  0  0  0  0  0  0  0  0
   -0.9094   68.9488   61.6016 H   0  0  0  0  0  0  0  0  0  0  0  0
   -1.1699   70.3439   62.5424 H   0  0  0  0  0  0  0  0  0  0  0  0
    0.5997   70.6739   60.8861 H   0  0  0  0  0  0  0  0  0  0  0  0
    1.1489   70.8720   62.5896 H   0  0  0  0  0  0  0  0  0  0  0  0
    1.4806   68.3749   60.8328 H   0  0  0  0  0  0  0  0  0  0  0  0
    2.7804   69.5051   61.3714 H   0  0  0  0  0  0  0  0  0  0  0  0
    1.8936   70.5174   68.2770 H   0  0  0  0  0  0  0  0  0  0  0  0
   -0.2650   69.0623   67.0997 H   0  0  0  0  0  0  0  0  0  0  0  0
    0.6888   68.2244   66.1991 H   0  0  0  0  0  0  0  0  0  0  0  0
    0.5847   68.2472   69.4113 H   0  0  0  0  0  0  0  0  0  0  0  0
    1.6871   67.2668   68.9150 H   0  0  0  0  0  0  0  0  0  0  0  0
  2  1  1  0
  3  2  2  0
  4  3  1  0
  5  4  2  0
  6  5  1  0
  7  6  2  0
  7  2  1  0
  8  5  1  0
  9  8  1  0
 10  9  2  0
 11  4  1  0
 11 10  1  0
 12 11  2  0
 13  7  1  0
 14 13  1  0
 15 14  1  0
 16 15  1  0
 17 16  1  0
 18 17  1  0
 18 13  1  0
 19 10  1  0
 20 19  2  0
 21 19  1  0
 22  8  1  0
 23 22  1  0
 24 23  1  0
 24 22  1  0
  3 25  1  0
  6 26  1  0
  9 27  1  0
 14 28  1  0
 14 29  1  0
 15 30  1  0
 15 31  1  0
 16 32  1  0
 16 33  1  0
 17 34  1  0
 17 35  1  0
 18 36  1  0
 18 37  1  0
 22 38  1  0
 23 39  1  0
 23 40  1  0
 24 41  1  0
 24 42  1  0
M  CHG  2  16   1  21  -1
M  END
>  <score>  (2) 
-9.234

$$$$
=
     RDKit          3D

 42 45  0  0  0  0  0  0  0  0999 V2000
    1.8850   68.8240   68.8860 F   0  0  0  0  0  0  0  0  0  0  0  0
    1.8230   68.8000   67.5450 C   0  0  0  0  0  0  0  0  0  0  0  0
    3.0300   68.8390   66.8610 C   0  0  0  0  0  0  0  0  0  0  0  0
    3.0300   68.8550   65.4660 C   0  0  0  0  0  0  0  0  0  0  0  0
    1.8260   68.8000   64.7430 C   0  0  0  0  0  0  0  0  0  0  0  0
    0.6240   68.7480   65.4740 C   0  0  0  0  0  0  0  0  0  0  0  0
    0.5790   68.7920   66.8830 C   0  0  0  0  0  0  0  0  0  0  0  0
    1.8590   68.8140   63.3210 N   0  0  0  0  0  0  0  0  0  0  0  0
    3.0880   68.7370   62.6880 C   0  0  0  0  0  0  0  0  0  0  0  0
    4.2830   68.7930   63.2900 C   0  0  0  0  0  0  0  0  0  0  0  0
    4.3270   68.9460   64.7500 C   0  0  0  0  0  0  0  0  0  0  0  0
    5.3420   69.1770   65.3970 O   0  0  0  0  0  0  0  0  0  0  0  0
   -0.6730   68.8080   67.5290 N   0  0  0  0  0  0  0  0  0  0  0  0
   -1.8100   69.5160   66.9030 C   0  0  0  0  0  0  0  0  0  0  0  0
   -2.6110   68.5950   65.9550 C   0  0  0  0  0  0  0  0  0  0  0  0
   -2.9920   67.3120   66.6640 N   0  0  0  0  0  4  0  0  0  0  0  0
   -1.7960   66.6070   67.2650 C   0  0  0  0  0  0  0  0  0  0  0  0
   -1.0500   67.5550   68.2230 C   0  0  0  0  0  0  0  0  0  0  0  0
    5.5250   68.6720   62.4410 C   0  0  0  0  0  0  0  0  0  0  0  0
    5.9990   67.5000   62.3580 O   0  0  0  0  0  0  0  0  0  0  0  0
    5.9920   69.7600   62.0040 O   0  0  0  0  0  1  0  0  0  0  0  0
    0.6510   68.6300   62.4970 C   0  0  0  0  0  0  0  0  0  0  0  0
   -0.5540   69.5270   62.6410 C   0  0  0  0  0  0  0  0  0  0  0  0
    0.2780   69.5980   61.4000 C   0  0  0  0  0  0  0  0  0  0  0  0
    3.9801   68.8572   67.4150 H   0  0  0  0  0  0  0  0  0  0  0  0
   -0.3236   68.6694   64.9209 H   0  0  0  0  0  0  0  0  0  0  0  0
    3.0824   68.6195   61.5943 H   0  0  0  0  0  0  0  0  0  0  0  0
   -2.4808   69.8813   67.6946 H   0  0  0  0  0  0  0  0  0  0  0  0
   -1.4071   70.3494   66.3087 H   0  0  0  0  0  0  0  0  0  0  0  0
   -3.5244   69.1150   65.6305 H   0  0  0  0  0  0  0  0  0  0  0  0
   -1.9864   68.3495   65.0834 H   0  0  0  0  0  0  0  0  0  0  0  0
   -3.6571   67.5359   67.4180 H   0  0  0  0  0  0  0  0  0  0  0  0
   -3.4104   66.6804   65.9662 H   0  0  0  0  0  0  0  0  0  0  0  0
   -2.1372   65.7216   67.8215 H   0  0  0  0  0  0  0  0  0  0  0  0
   -1.1146   66.3013   66.4574 H   0  0  0  0  0  0  0  0  0  0  0  0
   -1.7035   67.7960   69.0744 H   0  0  0  0  0  0  0  0  0  0  0  0
   -0.1351   67.0556   68.5744 H   0  0  0  0  0  0  0  0  0  0  0  0
    0.8309   67.5463   62.5544 H   0  0  0  0  0  0  0  0  0  0  0  0
   -1.5660   69.0979   62.5998 H   0  0  0  0  0  0  0  0  0  0  0  0
   -0.8927   70.2570   63.3909 H   0  0  0  0  0  0  0  0  0  0  0  0
   -0.1229   69.2209   60.4476 H   0  0  0  0  0  0  0  0  0  0  0  0
    0.8027   70.4014   60.8622 H   0  0  0  0  0  0  0  0  0  0  0  0
  2  1  1  0
  3  2  2  0
  4  3  1  0
  5  4  2  0
  6  5  1  0
  7  6  2  0
  7  2  1  0
  8  5  1  0
  9  8  1  0
 10  9  2  0
 11  4  1  0
 11 10  1  0
 12 11  2  0
 13  7  1  0
 14 13  1  0
 15 14  1  0
 16 15  1  0
 17 16  1  0
 18 17  1  0
 18 13  1  0
 19 10  1  0
 20 19  2  0
 21 19  1  0
 22  8  1  0
 23 22  1  0
 24 23  1  0
 24 22  1  0
  3 25  1  0
  6 26  1  0
  9 27  1  0
 14 28  1  0
 14 29  1  0
 15 30  1  0
 15 31  1  0
 16 32  1  0
 16 33  1  0
 17 34  1  0
 17 35  1  0
 18 36  1  0
 18 37  1  0
 22 38  1  0
 23 39  1  0
 23 40  1  0
 24 41  1  0
 24 42  1  0
M  CHG  2  16   1  21  -1
M  END
>  <score>  (3) 
-8.741

$$$$
=
     RDKit          3D

 42 45  0  0  0  0  0  0  0  0999 V2000
    3.0110   55.9500   71.3700 F   0  0  0  0  0  0  0  0  0  0  0  0
    2.6860   57.2280   71.6170 C   0  0  0  0  0  0  0  0  0  0  0  0
    3.3630   58.1990   70.8910 C   0  0  0  0  0  0  0  0  0  0  0  0
    3.0970   59.5480   71.1300 C   0  0  0  0  0  0  0  0  0  0  0  0
    2.1310   59.9380   72.0730 C   0  0  0  0  0  0  0  0  0  0  0  0
    1.4570   58.9230   72.7800 C   0  0  0  0  0  0  0  0  0  0  0  0
    1.7410   57.5510   72.6110 C   0  0  0  0  0  0  0  0  0  0  0  0
    1.8800   61.3200   72.2910 N   0  0  0  0  0  0  0  0  0  0  0  0
    2.4960   62.2420   71.4630 C   0  0  0  0  0  0  0  0  0  0  0  0
    3.4330   61.9680   70.5470 C   0  0  0  0  0  0  0  0  0  0  0  0
    3.8640   60.5740   70.3800 C   0  0  0  0  0  0  0  0  0  0  0  0
    4.8220   60.2160   69.7040 O   0  0  0  0  0  0  0  0  0  0  0  0
    1.0680   56.6080   73.4130 N   0  0  0  0  0  0  0  0  0  0  0  0
    1.8430   55.7220   74.3070 C   0  0  0  0  0  0  0  0  0  0  0  0
    2.0590   56.3540   75.7000 C   0  0  0  0  0  0  0  0  0  0  0  0
    0.7390   56.8200   76.2790 N   0  0  0  0  0  4  0  0  0  0  0  0
   -0.0060   57.7470   75.3440 C   0  0  0  0  0  0  0  0  0  0  0  0
   -0.2240   57.0600   73.9820 C   0  0  0  0  0  0  0  0  0  0  0  0
    3.9820   63.0990   69.7140 C   0  0  0  0  0  0  0  0  0  0  0  0
    3.3630   63.3100   68.6290 O   0  0  0  0  0  0  0  0  0  0  0  0
    5.0420   63.6290   70.1490 O   0  0  0  0  0  1  0  0  0  0  0  0
    0.7960   61.8010   73.1670 C   0  0  0  0  0  0  0  0  0  0  0  0
    0.1860   63.1720   72.9970 C   0  0  0  0  0  0  0  0  0  0  0  0
   -0.6220   61.9560   72.6710 C   0  0  0  0  0  0  0  0  0  0  0  0
    4.1041   57.9068   70.1325 H   0  0  0  0  0  0  0  0  0  0  0  0
    0.6740   59.2129   73.4961 H   0  0  0  0  0  0  0  0  0  0  0  0
    2.1885   63.2930   71.5667 H   0  0  0  0  0  0  0  0  0  0  0  0
    1.2983   54.7740   74.4274 H   0  0  0  0  0  0  0  0  0  0  0  0
    2.8304   55.5574   73.8509 H   0  0  0  0  0  0  0  0  0  0  0  0
    2.5057   55.6063   76.3719 H   0  0  0  0  0  0  0  0  0  0  0  0
    2.7297   57.2199   75.5988 H   0  0  0  0  0  0  0  0  0  0  0  0
    0.1504   55.9957   76.4658 H   0  0  0  0  0  0  0  0  0  0  0  0
    0.9422   57.3425   77.1431 H   0  0  0  0  0  0  0  0  0  0  0  0
   -0.9817   58.0008   75.7840 H   0  0  0  0  0  0  0  0  0  0  0  0
    0.5864   58.6619   75.1957 H   0  0  0  0  0  0  0  0  0  0  0  0
   -0.8835   56.1901   74.1173 H   0  0  0  0  0  0  0  0  0  0  0  0
   -0.6831   57.7816   73.2902 H   0  0  0  0  0  0  0  0  0  0  0  0
    1.2798   61.2562   73.9911 H   0  0  0  0  0  0  0  0  0  0  0  0
   -0.0631   63.7758   73.8821 H   0  0  0  0  0  0  0  0  0  0  0  0
    0.4685   64.0849   72.4522 H   0  0  0  0  0  0  0  0  0  0  0  0
   -1.4643   61.6670   73.3168 H   0  0  0  0  0  0  0  0  0  0  0  0
   -1.1777   61.6074   71.7880 H   0  0  0  0  0  0  0  0  0  0  0  0
  2  1  1  0
  3  2  2  0
  4  3  1  0
  5  4  2  0
  6  5  1  0
  7  6  2  0
  7  2  1  0
  8  5  1  0
  9  8  1  0
 10  9  2  0
 11  4  1  0
 11 10  1  0
 12 11  2  0
 13  7  1  0
 14 13  1  0
 15 14  1  0
 16 15  1  0
 17 16  1  0
 18 17  1  0
 18 13  1  0
 19 10  1  0
 20 19  2  0
 21 19  1  0
 22  8  1  0
 23 22  1  0
 24 23  1  0
 24 22  1  0
  3 25  1  0
  6 26  1  0
  9 27  1  0
 14 28  1  0
 14 29  1  0
 15 30  1  0
 15 31  1  0
 16 32  1  0
 16 33  1  0
 17 34  1  0
 17 35  1  0
 18 36  1  0
 18 37  1  0
 22 38  1  0
 23 39  1  0
 23 40  1  0
 24 41  1  0
 24 42  1  0
M  CHG  2  16   1  21  -1
M  END
>  <score>  (4) 
-8.48

$$$$
=
     RDKit          3D

 42 45  0  0  0  0  0  0  0  0999 V2000
    0.4240   62.3310   76.0210 F   0  0  0  0  0  0  0  0  0  0  0  0
    0.8010   62.4150   74.7350 C   0  0  0  0  0  0  0  0  0  0  0  0
    0.4350   63.5650   74.0490 C   0  0  0  0  0  0  0  0  0  0  0  0
    0.7640   63.6950   72.6990 C   0  0  0  0  0  0  0  0  0  0  0  0
    1.4890   62.6920   72.0330 C   0  0  0  0  0  0  0  0  0  0  0  0
    1.8520   61.5470   72.7670 C   0  0  0  0  0  0  0  0  0  0  0  0
    1.4860   61.3510   74.1160 C   0  0  0  0  0  0  0  0  0  0  0  0
    1.8130   62.8560   70.6580 N   0  0  0  0  0  0  0  0  0  0  0  0
    1.5270   64.0670   70.0520 C   0  0  0  0  0  0  0  0  0  0  0  0
    0.8340   65.0730   70.6010 C   0  0  0  0  0  0  0  0  0  0  0  0
    0.3230   64.9090   71.9670 C   0  0  0  0  0  0  0  0  0  0  0  0
   -0.4590   65.6770   72.5170 O   0  0  0  0  0  0  0  0  0  0  0  0
    1.8310   60.1420   74.7500 N   0  0  0  0  0  0  0  0  0  0  0  0
    1.0000   58.9380   74.5350 C   0  0  0  0  0  0  0  0  0  0  0  0
    1.4730   58.1210   73.3130 C   0  0  0  0  0  0  0  0  0  0  0  0
    2.9590   57.8400   73.4090 N   0  0  0  0  0  4  0  0  0  0  0  0
    3.7730   59.1010   73.6000 C   0  0  0  0  0  0  0  0  0  0  0  0
    3.2830   59.8630   74.8470 C   0  0  0  0  0  0  0  0  0  0  0  0
    0.6350   66.3350   69.7980 C   0  0  0  0  0  0  0  0  0  0  0  0
   -0.3810   66.3290   69.0410 O   0  0  0  0  0  0  0  0  0  0  0  0
    1.5520   67.1960   69.9030 O   0  0  0  0  0  1  0  0  0  0  0  0
    2.6770   61.9120   69.9280 C   0  0  0  0  0  0  0  0  0  0  0  0
    3.5180   62.3470   68.7520 C   0  0  0  0  0  0  0  0  0  0  0  0
    4.1820   61.9600   70.0350 C   0  0  0  0  0  0  0  0  0  0  0  0
   -0.1106   64.3682   74.5659 H   0  0  0  0  0  0  0  0  0  0  0  0
    2.4480   60.7697   72.2665 H   0  0  0  0  0  0  0  0  0  0  0  0
    1.9021   64.2165   69.0288 H   0  0  0  0  0  0  0  0  0  0  0  0
    1.0567   58.3024   75.4310 H   0  0  0  0  0  0  0  0  0  0  0  0
   -0.0326   59.2665   74.3458 H   0  0  0  0  0  0  0  0  0  0  0  0
    0.9252   57.1677   73.2802 H   0  0  0  0  0  0  0  0  0  0  0  0
    1.2776   58.7006   72.3988 H   0  0  0  0  0  0  0  0  0  0  0  0
    3.1262   57.2138   74.2095 H   0  0  0  0  0  0  0  0  0  0  0  0
    3.2546   57.4065   72.5227 H   0  0  0  0  0  0  0  0  0  0  0  0
    4.8323   58.8343   73.7293 H   0  0  0  0  0  0  0  0  0  0  0  0
    3.6546   59.7438   72.7153 H   0  0  0  0  0  0  0  0  0  0  0  0
    3.4750   59.2531   75.7421 H   0  0  0  0  0  0  0  0  0  0  0  0
    3.8242   60.8183   74.9145 H   0  0  0  0  0  0  0  0  0  0  0  0
    1.9057   61.1462   70.0974 H   0  0  0  0  0  0  0  0  0  0  0  0
    3.6067   61.6962   67.8696 H   0  0  0  0  0  0  0  0  0  0  0  0
    3.5433   63.2339   68.1018 H   0  0  0  0  0  0  0  0  0  0  0  0
    4.7584   61.0250   70.0948 H   0  0  0  0  0  0  0  0  0  0  0  0
    4.8964   62.4454   70.7162 H   0  0  0  0  0  0  0  0  0  0  0  0
  2  1  1  0
  3  2  2  0
  4  3  1  0
  5  4  2  0
  6  5  1  0
  7  6  2  0
  7  2  1  0
  8  5  1  0
  9  8  1  0
 10  9  2  0
 11  4  1  0
 11 10  1  0
 12 11  2  0
 13  7  1  0
 14 13  1  0
 15 14  1  0
 16 15  1  0
 17 16  1  0
 18 17  1  0
 18 13  1  0
 19 10  1  0
 20 19  2  0
 21 19  1  0
 22  8  1  0
 23 22  1  0
 24 23  1  0
 24 22  1  0
  3 25  1  0
  6 26  1  0
  9 27  1  0
 14 28  1  0
 14 29  1  0
 15 30  1  0
 15 31  1  0
 16 32  1  0
 16 33  1  0
 17 34  1  0
 17 35  1  0
 18 36  1  0
 18 37  1  0
 22 38  1  0
 23 39  1  0
 23 40  1  0
 24 41  1  0
 24 42  1  0
M  CHG  2  16   1  21  -1
M  END
>  <score>  (5) 
-8.335

$$$$
=
     RDKit          3D

 42 45  0  0  0  0  0  0  0  0999 V2000
   -2.7090   60.1000   74.5770 F   0  0  0  0  0  0  0  0  0  0  0  0
   -1.5210   60.1420   73.9540 C   0  0  0  0  0  0  0  0  0  0  0  0
   -1.2090   61.3140   73.2780 C   0  0  0  0  0  0  0  0  0  0  0  0
   -0.0050   61.4060   72.5790 C   0  0  0  0  0  0  0  0  0  0  0  0
    0.9110   60.3400   72.5750 C   0  0  0  0  0  0  0  0  0  0  0  0
    0.5630   59.1730   73.2830 C   0  0  0  0  0  0  0  0  0  0  0  0
   -0.6700   59.0190   73.9510 C   0  0  0  0  0  0  0  0  0  0  0  0
    2.1310   60.4650   71.8560 N   0  0  0  0  0  0  0  0  0  0  0  0
    2.4460   61.6920   71.2980 C   0  0  0  0  0  0  0  0  0  0  0  0
    1.6370   62.7580   71.2430 C   0  0  0  0  0  0  0  0  0  0  0  0
    0.2920   62.6480   71.8220 C   0  0  0  0  0  0  0  0  0  0  0  0
   -0.5950   63.4830   71.6910 O   0  0  0  0  0  0  0  0  0  0  0  0
   -0.9640   57.7890   74.5720 N   0  0  0  0  0  0  0  0  0  0  0  0
   -0.5770   56.5240   73.9110 C   0  0  0  0  0  0  0  0  0  0  0  0
    0.8480   56.0780   74.3070 C   0  0  0  0  0  0  0  0  0  0  0  0
    0.9960   56.0620   75.8150 N   0  0  0  0  0  4  0  0  0  0  0  0
    0.6180   57.3830   76.4460 C   0  0  0  0  0  0  0  0  0  0  0  0
   -0.8200   57.7680   76.0460 C   0  0  0  0  0  0  0  0  0  0  0  0
    2.1550   64.0260   70.6120 C   0  0  0  0  0  0  0  0  0  0  0  0
    1.2930   64.6840   69.9560 O   0  0  0  0  0  0  0  0  0  0  0  0
    3.3960   64.2230   70.7290 O   0  0  0  0  0  1  0  0  0  0  0  0
    3.1930   59.4450   71.9110 C   0  0  0  0  0  0  0  0  0  0  0  0
    4.6520   59.8040   71.7550 C   0  0  0  0  0  0  0  0  0  0  0  0
    4.1410   59.3390   73.0820 C   0  0  0  0  0  0  0  0  0  0  0  0
   -1.9065   62.1644   73.2934 H   0  0  0  0  0  0  0  0  0  0  0  0
    1.2854   58.3442   73.3165 H   0  0  0  0  0  0  0  0  0  0  0  0
    3.4496   61.8012   70.8611 H   0  0  0  0  0  0  0  0  0  0  0  0
   -1.2893   55.7382   74.2028 H   0  0  0  0  0  0  0  0  0  0  0  0
   -0.5919   56.6898   72.8237 H   0  0  0  0  0  0  0  0  0  0  0  0
    1.0341   55.0677   73.9137 H   0  0  0  0  0  0  0  0  0  0  0  0
    1.5746   56.7876   73.8844 H   0  0  0  0  0  0  0  0  0  0  0  0
    0.3868   55.3257   76.1992 H   0  0  0  0  0  0  0  0  0  0  0  0
    1.9871   55.8832   76.0311 H   0  0  0  0  0  0  0  0  0  0  0  0
    0.6799   57.2944   77.5407 H   0  0  0  0  0  0  0  0  0  0  0  0
    1.3106   58.1617   76.0941 H   0  0  0  0  0  0  0  0  0  0  0  0
   -1.5214   57.0327   76.4672 H   0  0  0  0  0  0  0  0  0  0  0  0
   -1.0400   58.7720   76.4378 H   0  0  0  0  0  0  0  0  0  0  0  0
    2.4972   58.7596   71.4050 H   0  0  0  0  0  0  0  0  0  0  0  0
    5.3169   59.1562   71.1649 H   0  0  0  0  0  0  0  0  0  0  0  0
    5.1996   60.6901   71.4015 H   0  0  0  0  0  0  0  0  0  0  0  0
    4.4308   58.3498   73.4661 H   0  0  0  0  0  0  0  0  0  0  0  0
    4.1586   59.7428   74.1051 H   0  0  0  0  0  0  0  0  0  0  0  0
  2  1  1  0
  3  2  2  0
  4  3  1  0
  5  4  2  0
  6  5  1  0
  7  6  2  0
  7  2  1  0
  8  5  1  0
  9  8  1  0
 10  9  2  0
 11  4  1  0
 11 10  1  0
 12 11  2  0
 13  7  1  0
 14 13  1  0
 15 14  1  0
 16 15  1  0
 17 16  1  0
 18 17  1  0
 18 13  1  0
 19 10  1  0
 20 19  2  0
 21 19  1  0
 22  8  1  0
 23 22  1  0
 24 23  1  0
 24 22  1  0
  3 25  1  0
  6 26  1  0
  9 27  1  0
 14 28  1  0
 14 29  1  0
 15 30  1  0
 15 31  1  0
 16 32  1  0
 16 33  1  0
 17 34  1  0
 17 35  1  0
 18 36  1  0
 18 37  1  0
 22 38  1  0
 23 39  1  0
 23 40  1  0
 24 41  1  0
 24 42  1  0
M  CHG  2  16   1  21  -1
M  END
>  <score>  (6) 
-7.492

$$$$
=
     RDKit          3D

 42 45  0  0  0  0  0  0  0  0999 V2000
    4.3830   69.2850   67.5240 F   0  0  0  0  0  0  0  0  0  0  0  0
    3.4070   69.1040   66.6210 C   0  0  0  0  0  0  0  0  0  0  0  0
    2.1030   69.0970   67.0990 C   0  0  0  0  0  0  0  0  0  0  0  0
    1.0470   68.8760   66.2150 C   0  0  0  0  0  0  0  0  0  0  0  0
    1.2810   68.6910   64.8420 C   0  0  0  0  0  0  0  0  0  0  0  0
    2.6160   68.7180   64.3940 C   0  0  0  0  0  0  0  0  0  0  0  0
    3.7150   68.8780   65.2640 C   0  0  0  0  0  0  0  0  0  0  0  0
    0.1820   68.4720   63.9660 N   0  0  0  0  0  0  0  0  0  0  0  0
   -1.1000   68.5890   64.4720 C   0  0  0  0  0  0  0  0  0  0  0  0
   -1.4210   68.7530   65.7620 C   0  0  0  0  0  0  0  0  0  0  0  0
   -0.3370   68.8230   66.7510 C   0  0  0  0  0  0  0  0  0  0  0  0
   -0.4980   68.8030   67.9660 O   0  0  0  0  0  0  0  0  0  0  0  0
    5.0200   68.8200   64.7370 N   0  0  0  0  0  0  0  0  0  0  0  0
    5.6180   67.5090   64.4060 C   0  0  0  0  0  0  0  0  0  0  0  0
    5.3010   67.0810   62.9560 C   0  0  0  0  0  0  0  0  0  0  0  0
    5.6600   68.1890   61.9880 N   0  0  0  0  0  4  0  0  0  0  0  0
    5.0040   69.5040   62.3480 C   0  0  0  0  0  0  0  0  0  0  0  0
    5.3750   69.9020   63.7900 C   0  0  0  0  0  0  0  0  0  0  0  0
   -2.8770   68.8830   66.1340 C   0  0  0  0  0  0  0  0  0  0  0  0
   -3.2060   68.2960   67.2080 O   0  0  0  0  0  0  0  0  0  0  0  0
   -3.6030   69.4710   65.2860 O   0  0  0  0  0  1  0  0  0  0  0  0
    0.3370   68.3980   62.5020 C   0  0  0  0  0  0  0  0  0  0  0  0
   -0.0210   69.5590   61.6050 C   0  0  0  0  0  0  0  0  0  0  0  0
    1.4130   69.1680   61.7730 C   0  0  0  0  0  0  0  0  0  0  0  0
    1.9043   69.2647   68.1678 H   0  0  0  0  0  0  0  0  0  0  0  0
    2.8106   68.6094   63.3168 H   0  0  0  0  0  0  0  0  0  0  0  0
   -1.9295   68.5433   63.7510 H   0  0  0  0  0  0  0  0  0  0  0  0
    6.7093   67.5753   64.5267 H   0  0  0  0  0  0  0  0  0  0  0  0
    5.1889   66.7574   65.0849 H   0  0  0  0  0  0  0  0  0  0  0  0
    5.8827   66.1808   62.7084 H   0  0  0  0  0  0  0  0  0  0  0  0
    4.2246   66.8700   62.8735 H   0  0  0  0  0  0  0  0  0  0  0  0
    6.6821   68.3163   61.9952 H   0  0  0  0  0  0  0  0  0  0  0  0
    5.3206   67.9136   61.0553 H   0  0  0  0  0  0  0  0  0  0  0  0
    5.3492   70.2850   61.6545 H   0  0  0  0  0  0  0  0  0  0  0  0
    3.9120   69.3945   62.2737 H   0  0  0  0  0  0  0  0  0  0  0  0
    6.4573   70.0907   63.8459 H   0  0  0  0  0  0  0  0  0  0  0  0
    4.8160   70.8094   64.0625 H   0  0  0  0  0  0  0  0  0  0  0  0
    0.0424   67.3403   62.5683 H   0  0  0  0  0  0  0  0  0  0  0  0
   -0.5314   69.3763   60.6479 H   0  0  0  0  0  0  0  0  0  0  0  0
   -0.5911   70.4910   61.7327 H   0  0  0  0  0  0  0  0  0  0  0  0
    1.9554   68.6982   60.9393 H   0  0  0  0  0  0  0  0  0  0  0  0
    2.3306   69.6942   62.0750 H   0  0  0  0  0  0  0  0  0  0  0  0
  2  1  1  0
  3  2  2  0
  4  3  1  0
  5  4  2  0
  6  5  1  0
  7  6  2  0
  7  2  1  0
  8  5  1  0
  9  8  1  0
 10  9  2  0
 11  4  1  0
 11 10  1  0
 12 11  2  0
 13  7  1  0
 14 13  1  0
 15 14  1  0
 16 15  1  0
 17 16  1  0
 18 17  1  0
 18 13  1  0
 19 10  1  0
 20 19  2  0
 21 19  1  0
 22  8  1  0
 23 22  1  0
 24 23  1  0
 24 22  1  0
  3 25  1  0
  6 26  1  0
  9 27  1  0
 14 28  1  0
 14 29  1  0
 15 30  1  0
 15 31  1  0
 16 32  1  0
 16 33  1  0
 17 34  1  0
 17 35  1  0
 18 36  1  0
 18 37  1  0
 22 38  1  0
 23 39  1  0
 23 40  1  0
 24 41  1  0
 24 42  1  0
M  CHG  2  16   1  21  -1
M  END
>  <score>  (7) 
-7.255

$$$$
=
     RDKit          3D

 42 45  0  0  0  0  0  0  0  0999 V2000
   -2.2680   61.4030   72.9590 F   0  0  0  0  0  0  0  0  0  0  0  0
   -1.1200   60.7770   73.2650 C   0  0  0  0  0  0  0  0  0  0  0  0
    0.0100   61.1590   72.5540 C   0  0  0  0  0  0  0  0  0  0  0  0
    1.2250   60.5200   72.7990 C   0  0  0  0  0  0  0  0  0  0  0  0
    1.3300   59.5170   73.7780 C   0  0  0  0  0  0  0  0  0  0  0  0
    0.1640   59.1680   74.4860 C   0  0  0  0  0  0  0  0  0  0  0  0
   -1.0960   59.7470   74.2250 C   0  0  0  0  0  0  0  0  0  0  0  0
    2.5840   58.8870   74.0070 N   0  0  0  0  0  0  0  0  0  0  0  0
    3.7000   59.3810   73.3550 C   0  0  0  0  0  0  0  0  0  0  0  0
    3.6980   60.3230   72.4030 C   0  0  0  0  0  0  0  0  0  0  0  0
    2.4130   60.9050   71.9960 C   0  0  0  0  0  0  0  0  0  0  0  0
    2.2560   61.6450   71.0310 O   0  0  0  0  0  0  0  0  0  0  0  0
   -2.2220   59.2840   74.9340 N   0  0  0  0  0  0  0  0  0  0  0  0
   -2.2690   57.8820   75.4000 C   0  0  0  0  0  0  0  0  0  0  0  0
   -1.6520   57.7210   76.8070 C   0  0  0  0  0  0  0  0  0  0  0  0
   -2.2660   58.7160   77.7700 N   0  0  0  0  0  4  0  0  0  0  0  0
   -2.1710   60.1400   77.2670 C   0  0  0  0  0  0  0  0  0  0  0  0
   -2.8270   60.2550   75.8770 C   0  0  0  0  0  0  0  0  0  0  0  0
    5.0170   60.7580   71.8150 C   0  0  0  0  0  0  0  0  0  0  0  0
    5.6410   61.6280   72.4920 O   0  0  0  0  0  0  0  0  0  0  0  0
    5.2890   60.2800   70.6780 O   0  0  0  0  0  1  0  0  0  0  0  0
    2.7990   57.9220   75.1000 C   0  0  0  0  0  0  0  0  0  0  0  0
    4.1400   57.7760   75.7790 C   0  0  0  0  0  0  0  0  0  0  0  0
    2.9880   58.3650   76.5310 C   0  0  0  0  0  0  0  0  0  0  0  0
   -0.0529   61.9601   71.8028 H   0  0  0  0  0  0  0  0  0  0  0  0
    0.2388   58.4092   75.2789 H   0  0  0  0  0  0  0  0  0  0  0  0
    4.6755   58.9629   73.6443 H   0  0  0  0  0  0  0  0  0  0  0  0
   -3.3182   57.5530   75.4321 H   0  0  0  0  0  0  0  0  0  0  0  0
   -1.6825   57.2701   74.6988 H   0  0  0  0  0  0  0  0  0  0  0  0
   -1.8410   56.7003   77.1710 H   0  0  0  0  0  0  0  0  0  0  0  0
   -0.5694   57.9059   76.7451 H   0  0  0  0  0  0  0  0  0  0  0  0
   -3.2592   58.4778   77.9031 H   0  0  0  0  0  0  0  0  0  0  0  0
   -1.7425   58.6602   78.6553 H   0  0  0  0  0  0  0  0  0  0  0  0
   -2.6882   60.8096   77.9700 H   0  0  0  0  0  0  0  0  0  0  0  0
   -1.1113   60.4249   77.1900 H   0  0  0  0  0  0  0  0  0  0  0  0
   -3.9038   60.0490   75.9670 H   0  0  0  0  0  0  0  0  0  0  0  0
   -2.6658   61.2724   75.4912 H   0  0  0  0  0  0  0  0  0  0  0  0
    2.1082   57.2438   74.5777 H   0  0  0  0  0  0  0  0  0  0  0  0
    4.5155   56.7766   76.0440 H   0  0  0  0  0  0  0  0  0  0  0  0
    5.1654   58.1018   75.5501 H   0  0  0  0  0  0  0  0  0  0  0  0
    2.5180   57.7979   77.3480 H   0  0  0  0  0  0  0  0  0  0  0  0
    2.8187   59.3018   77.0822 H   0  0  0  0  0  0  0  0  0  0  0  0
  2  1  1  0
  3  2  2  0
  4  3  1  0
  5  4  2  0
  6  5  1  0
  7  6  2  0
  7  2  1  0
  8  5  1  0
  9  8  1  0
 10  9  2  0
 11  4  1  0
 11 10  1  0
 12 11  2  0
 13  7  1  0
 14 13  1  0
 15 14  1  0
 16 15  1  0
 17 16  1  0
 18 17  1  0
 18 13  1  0
 19 10  1  0
 20 19  2  0
 21 19  1  0
 22  8  1  0
 23 22  1  0
 24 23  1  0
 24 22  1  0
  3 25  1  0
  6 26  1  0
  9 27  1  0
 14 28  1  0
 14 29  1  0
 15 30  1  0
 15 31  1  0
 16 32  1  0
 16 33  1  0
 17 34  1  0
 17 35  1  0
 18 36  1  0
 18 37  1  0
 22 38  1  0
 23 39  1  0
 23 40  1  0
 24 41  1  0
 24 42  1  0
M  CHG  2  16   1  21  -1
M  END
>  <score>  (8) 
-6.986

$$$$
