=
     RDKit          3D

 28 29  0  0  0  0  0  0  0  0999 V2000
   -0.5370   67.8990   66.9310 C   0  0  0  0  0  0  0  0  0  0  0  0
   -1.3180   67.1050   67.7920 C   0  0  0  0  0  0  0  0  0  0  0  0
   -0.7500   66.5080   68.9060 C   0  0  0  0  0  0  0  0  0  0  0  0
    0.5930   66.7230   69.1280 C   0  0  0  0  0  0  0  0  0  0  0  0
    1.3810   67.4740   68.3280 N   0  0  0  0  0  0  0  0  0  0  0  0
    0.8270   68.0630   67.2330 C   0  0  0  0  0  0  0  0  0  0  0  0
    1.6410   68.8230   66.3650 N   0  0  0  0  0  0  0  0  0  0  0  0
    2.9820   69.2200   66.3740 C   0  0  0  0  0  0  0  0  0  0  0  0
    3.7490   68.9860   65.2220 C   0  0  0  0  0  0  0  0  0  0  0  0
    5.0990   69.3390   65.1560 C   0  0  0  0  0  0  0  0  0  0  0  0
    5.7130   69.9280   66.2570 C   0  0  0  0  0  0  0  0  0  0  0  0
    4.9830   70.1570   67.4310 C   0  0  0  0  0  0  0  0  0  0  0  0
    3.6220   69.8000   67.4720 C   0  0  0  0  0  0  0  0  0  0  0  0
    5.6250   70.8050   68.6270 C   0  0  0  0  0  0  0  0  0  0  0  0
    5.0250   70.4960   69.8100 F   0  0  0  0  0  0  0  0  0  0  0  0
    6.9360   70.4530   68.7870 F   0  0  0  0  0  0  0  0  0  0  0  0
    5.6260   72.1660   68.5520 F   0  0  0  0  0  0  0  0  0  0  0  0
   -2.3240   69.1050   65.9160 O   0  0  0  0  0  1  0  0  0  0  0  0
   -1.1870   68.5540   65.7350 C   0  0  0  0  0  0  0  0  0  0  0  0
   -0.5630   68.5040   64.6280 O   0  0  0  0  0  0  0  0  0  0  0  0
   -2.3870   66.9574   67.5789 H   0  0  0  0  0  0  0  0  0  0  0  0
   -1.3486   65.8858   69.5876 H   0  0  0  0  0  0  0  0  0  0  0  0
    1.0516   66.2542   70.0111 H   0  0  0  0  0  0  0  0  0  0  0  0
    1.1312   69.1622   65.5368 H   0  0  0  0  0  0  0  0  0  0  0  0
    3.2752   68.5128   64.3493 H   0  0  0  0  0  0  0  0  0  0  0  0
    5.6744   69.1521   64.2373 H   0  0  0  0  0  0  0  0  0  0  0  0
    6.7738   70.2145   66.2057 H   0  0  0  0  0  0  0  0  0  0  0  0
    3.0476   69.9824   68.3922 H   0  0  0  0  0  0  0  0  0  0  0  0
  2  1  2  0
  3  2  1  0
  4  3  2  0
  5  4  1  0
  6  5  2  0
  6  1  1  0
  7  6  1  0
  8  7  1  0
  9  8  2  0
 10  9  1  0
 11 10  2  0
 12 11  1  0
 13 12  2  0
 13  8  1  0
 14 12  1  0
 15 14  1  0
 16 14  1  0
 17 14  1  0
 19 18  1  0
 19  1  1  0
 20 19  2  0
  2 21  1  0
  3 22  1  0
  4 23  1  0
  7 24  1  0
  9 25  1  0
 10 26  1  0
 11 27  1  0
 13 28  1  0
M  CHG  1  18  -1
M  END
>  <score>  (1) 
-10.633

$$$$
=
     RDKit          3D

 28 29  0  0  0  0  0  0  0  0999 V2000
    2.6390   68.3620   63.3680 C   0  0  0  0  0  0  0  0  0  0  0  0
    3.1500   68.2520   62.0610 C   0  0  0  0  0  0  0  0  0  0  0  0
    4.4210   68.7130   61.7610 C   0  0  0  0  0  0  0  0  0  0  0  0
    5.1520   69.2750   62.7850 C   0  0  0  0  0  0  0  0  0  0  0  0
    4.7040   69.4040   64.0520 N   0  0  0  0  0  0  0  0  0  0  0  0
    3.4550   68.9520   64.3520 C   0  0  0  0  0  0  0  0  0  0  0  0
    2.9540   69.1100   65.6620 N   0  0  0  0  0  0  0  0  0  0  0  0
    3.4810   69.5960   66.8630 C   0  0  0  0  0  0  0  0  0  0  0  0
    2.6000   69.8090   67.9350 C   0  0  0  0  0  0  0  0  0  0  0  0
    3.0460   70.3060   69.1610 C   0  0  0  0  0  0  0  0  0  0  0  0
    4.3920   70.6130   69.3350 C   0  0  0  0  0  0  0  0  0  0  0  0
    5.2960   70.4330   68.2790 C   0  0  0  0  0  0  0  0  0  0  0  0
    4.8260   69.9230   67.0540 C   0  0  0  0  0  0  0  0  0  0  0  0
    6.7570   70.7450   68.4510 C   0  0  0  0  0  0  0  0  0  0  0  0
    7.0520   72.0720   68.3540 F   0  0  0  0  0  0  0  0  0  0  0  0
    7.2480   70.3570   69.6660 F   0  0  0  0  0  0  0  0  0  0  0  0
    7.5430   70.1200   67.5300 F   0  0  0  0  0  0  0  0  0  0  0  0
    1.1470   67.0040   64.6340 O   0  0  0  0  0  1  0  0  0  0  0  0
    1.2570   67.8340   63.6720 C   0  0  0  0  0  0  0  0  0  0  0  0
    0.3000   68.2440   62.9420 O   0  0  0  0  0  0  0  0  0  0  0  0
    2.5347   67.7961   61.2714 H   0  0  0  0  0  0  0  0  0  0  0  0
    4.8315   68.6335   60.7436 H   0  0  0  0  0  0  0  0  0  0  0  0
    6.1636   69.6413   62.5558 H   0  0  0  0  0  0  0  0  0  0  0  0
    1.9775   68.7957   65.7547 H   0  0  0  0  0  0  0  0  0  0  0  0
    1.5322   69.5787   67.8058 H   0  0  0  0  0  0  0  0  0  0  0  0
    2.3352   70.4545   69.9873 H   0  0  0  0  0  0  0  0  0  0  0  0
    4.7471   70.9975   70.3025 H   0  0  0  0  0  0  0  0  0  0  0  0
    5.5356   69.7782   66.2261 H   0  0  0  0  0  0  0  0  0  0  0  0
  2  1  2  0
  3  2  1  0
  4  3  2  0
  5  4  1  0
  6  5  2  0
  6  1  1  0
  7  6  1  0
  8  7  1  0
  9  8  2  0
 10  9  1  0
 11 10  2  0
 12 11  1  0
 13 12  2  0
 13  8  1  0
 14 12  1  0
 15 14  1  0
 16 14  1  0
 17 14  1  0
 19 18  1  0
 19  1  1  0
 20 19  2  0
  2 21  1  0
  3 22  1  0
  4 23  1  0
  7 24  1  0
  9 25  1  0
 10 26  1  0
 11 27  1  0
 13 28  1  0
M  CHG  1  18  -1
M  END
>  <score>  (2) 
-10.137

$$$$
=
     RDKit          3D

 28 29  0  0  0  0  0  0  0  0999 V2000
   -0.5230   67.7990   67.2900 C   0  0  0  0  0  0  0  0  0  0  0  0
   -1.3160   66.7770   67.8450 C   0  0  0  0  0  0  0  0  0  0  0  0
   -0.9080   66.1150   68.9910 C   0  0  0  0  0  0  0  0  0  0  0  0
    0.2910   66.4960   69.5540 C   0  0  0  0  0  0  0  0  0  0  0  0
    1.0850   67.4680   69.0560 N   0  0  0  0  0  0  0  0  0  0  0  0
    0.6880   68.1220   67.9300 C   0  0  0  0  0  0  0  0  0  0  0  0
    1.5200   69.1170   67.3730 N   0  0  0  0  0  0  0  0  0  0  0  0
    2.7320   69.7070   67.7500 C   0  0  0  0  0  0  0  0  0  0  0  0
    2.7630   70.4510   68.9400 C   0  0  0  0  0  0  0  0  0  0  0  0
    3.9290   71.0840   69.3770 C   0  0  0  0  0  0  0  0  0  0  0  0
    5.0920   70.9910   68.6180 C   0  0  0  0  0  0  0  0  0  0  0  0
    5.0900   70.2740   67.4140 C   0  0  0  0  0  0  0  0  0  0  0  0
    3.9060   69.6380   66.9970 C   0  0  0  0  0  0  0  0  0  0  0  0
    6.3400   70.1500   66.5870 C   0  0  0  0  0  0  0  0  0  0  0  0
    6.6300   71.2640   65.8560 F   0  0  0  0  0  0  0  0  0  0  0  0
    7.4580   69.9130   67.3370 F   0  0  0  0  0  0  0  0  0  0  0  0
    6.2830   69.1220   65.6930 F   0  0  0  0  0  0  0  0  0  0  0  0
   -2.0160   69.2810   66.1730 O   0  0  0  0  0  1  0  0  0  0  0  0
   -1.0010   68.5180   66.0510 C   0  0  0  0  0  0  0  0  0  0  0  0
   -0.3680   68.3070   64.9690 O   0  0  0  0  0  0  0  0  0  0  0  0
   -2.2668   66.5021   67.3649 H   0  0  0  0  0  0  0  0  0  0  0  0
   -1.5182   65.3149   69.4354 H   0  0  0  0  0  0  0  0  0  0  0  0
    0.6215   65.9761   70.4653 H   0  0  0  0  0  0  0  0  0  0  0  0
    1.1516   69.4946   66.4883 H   0  0  0  0  0  0  0  0  0  0  0  0
    1.8470   70.5376   69.5429 H   0  0  0  0  0  0  0  0  0  0  0  0
    3.9281   71.6540   70.3178 H   0  0  0  0  0  0  0  0  0  0  0  0
    6.0141   71.4811   68.9638 H   0  0  0  0  0  0  0  0  0  0  0  0
    3.9052   69.0720   66.0538 H   0  0  0  0  0  0  0  0  0  0  0  0
  2  1  2  0
  3  2  1  0
  4  3  2  0
  5  4  1  0
  6  5  2  0
  6  1  1  0
  7  6  1  0
  8  7  1  0
  9  8  2  0
 10  9  1  0
 11 10  2  0
 12 11  1  0
 13 12  2  0
 13  8  1  0
 14 12  1  0
 15 14  1  0
 16 14  1  0
 17 14  1  0
 19 18  1  0
 19  1  1  0
 20 19  2  0
  2 21  1  0
  3 22  1  0
  4 23  1  0
  7 24  1  0
  9 25  1  0
 10 26  1  0
 11 27  1  0
 13 28  1  0
M  CHG  1  18  -1
M  END
>  <score>  (3) 
-9.798

$$$$
=
     RDKit          3D

 28 29  0  0  0  0  0  0  0  0999 V2000
    2.5720   68.5200   62.8090 C   0  0  0  0  0  0  0  0  0  0  0  0
    1.4290   68.3820   61.9980 C   0  0  0  0  0  0  0  0  0  0  0  0
    0.1680   68.6430   62.5100 C   0  0  0  0  0  0  0  0  0  0  0  0
    0.0850   69.0360   63.8280 C   0  0  0  0  0  0  0  0  0  0  0  0
    1.1520   69.1790   64.6430 N   0  0  0  0  0  0  0  0  0  0  0  0
    2.3930   68.9250   64.1450 C   0  0  0  0  0  0  0  0  0  0  0  0
    3.5180   69.0340   64.9900 N   0  0  0  0  0  0  0  0  0  0  0  0
    3.7150   69.4370   66.3160 C   0  0  0  0  0  0  0  0  0  0  0  0
    2.6220   69.3780   67.1940 C   0  0  0  0  0  0  0  0  0  0  0  0
    2.7340   69.7760   68.5280 C   0  0  0  0  0  0  0  0  0  0  0  0
    3.9490   70.2560   69.0080 C   0  0  0  0  0  0  0  0  0  0  0  0
    5.0550   70.3480   68.1520 C   0  0  0  0  0  0  0  0  0  0  0  0
    4.9220   69.9340   66.8140 C   0  0  0  0  0  0  0  0  0  0  0  0
    6.3810   70.8500   68.6540 C   0  0  0  0  0  0  0  0  0  0  0  0
    6.5700   70.6620   69.9910 F   0  0  0  0  0  0  0  0  0  0  0  0
    7.4470   70.2420   68.0530 F   0  0  0  0  0  0  0  0  0  0  0  0
    6.5580   72.1840   68.4350 F   0  0  0  0  0  0  0  0  0  0  0  0
    4.1350   67.0940   61.7140 O   0  0  0  0  0  1  0  0  0  0  0  0
    3.9360   68.2480   62.2200 C   0  0  0  0  0  0  0  0  0  0  0  0
    4.7950   69.1830   62.2770 O   0  0  0  0  0  0  0  0  0  0  0  0
    1.5380   68.0647   60.9504 H   0  0  0  0  0  0  0  0  0  0  0  0
   -0.7330   68.5403   61.8874 H   0  0  0  0  0  0  0  0  0  0  0  0
   -0.9122   69.2463   64.2419 H   0  0  0  0  0  0  0  0  0  0  0  0
    4.3933   68.7531   64.5253 H   0  0  0  0  0  0  0  0  0  0  0  0
    1.6542   69.0096   66.8229 H   0  0  0  0  0  0  0  0  0  0  0  0
    1.8639   69.7103   69.1978 H   0  0  0  0  0  0  0  0  0  0  0  0
    4.0414   70.5634   70.0601 H   0  0  0  0  0  0  0  0  0  0  0  0
    5.7907   70.0034   66.1427 H   0  0  0  0  0  0  0  0  0  0  0  0
  2  1  2  0
  3  2  1  0
  4  3  2  0
  5  4  1  0
  6  5  2  0
  6  1  1  0
  7  6  1  0
  8  7  1  0
  9  8  2  0
 10  9  1  0
 11 10  2  0
 12 11  1  0
 13 12  2  0
 13  8  1  0
 14 12  1  0
 15 14  1  0
 16 14  1  0
 17 14  1  0
 19 18  1  0
 19  1  1  0
 20 19  2  0
  2 21  1  0
  3 22  1  0
  4 23  1  0
  7 24  1  0
  9 25  1  0
 10 26  1  0
 11 27  1  0
 13 28  1  0
M  CHG  1  18  -1
M  END
>  <score>  (4) 
-9.691

$$$$
=
     RDKit          3D

 28 29  0  0  0  0  0  0  0  0999 V2000
   -0.5080   67.4910   67.6670 C   0  0  0  0  0  0  0  0  0  0  0  0
   -1.9010   67.5330   67.4680 C   0  0  0  0  0  0  0  0  0  0  0  0
   -2.4380   68.2290   66.3980 C   0  0  0  0  0  0  0  0  0  0  0  0
   -1.5600   68.8690   65.5500 C   0  0  0  0  0  0  0  0  0  0  0  0
   -0.2180   68.8590   65.7020 N   0  0  0  0  0  0  0  0  0  0  0  0
    0.3140   68.1750   66.7520 C   0  0  0  0  0  0  0  0  0  0  0  0
    1.7120   68.1820   66.9490 N   0  0  0  0  0  0  0  0  0  0  0  0
    2.8010   68.7020   66.2420 C   0  0  0  0  0  0  0  0  0  0  0  0
    2.8520   68.4900   64.8550 C   0  0  0  0  0  0  0  0  0  0  0  0
    3.9130   68.9640   64.0810 C   0  0  0  0  0  0  0  0  0  0  0  0
    4.9560   69.6570   64.6880 C   0  0  0  0  0  0  0  0  0  0  0  0
    4.9480   69.8680   66.0730 C   0  0  0  0  0  0  0  0  0  0  0  0
    3.8650   69.3880   66.8330 C   0  0  0  0  0  0  0  0  0  0  0  0
    6.0590   70.6260   66.7460 C   0  0  0  0  0  0  0  0  0  0  0  0
    5.6450   71.4040   67.7860 F   0  0  0  0  0  0  0  0  0  0  0  0
    7.0230   69.8110   67.2690 F   0  0  0  0  0  0  0  0  0  0  0  0
    6.7190   71.4620   65.8950 F   0  0  0  0  0  0  0  0  0  0  0  0
   -0.5120   65.5990   69.1140 O   0  0  0  0  0  1  0  0  0  0  0  0
    0.0520   66.7080   68.8310 C   0  0  0  0  0  0  0  0  0  0  0  0
    1.0390   67.2110   69.4550 O   0  0  0  0  0  0  0  0  0  0  0  0
   -2.5682   67.0088   68.1680 H   0  0  0  0  0  0  0  0  0  0  0  0
   -3.5245   68.2695   66.2311 H   0  0  0  0  0  0  0  0  0  0  0  0
   -1.9783   69.4224   64.6963 H   0  0  0  0  0  0  0  0  0  0  0  0
    1.9944   67.6923   67.8100 H   0  0  0  0  0  0  0  0  0  0  0  0
    2.0363   67.9371   64.3663 H   0  0  0  0  0  0  0  0  0  0  0  0
    3.9244   68.7902   62.9949 H   0  0  0  0  0  0  0  0  0  0  0  0
    5.7883   70.0399   64.0792 H   0  0  0  0  0  0  0  0  0  0  0  0
    3.8561   69.5573   67.9199 H   0  0  0  0  0  0  0  0  0  0  0  0
  2  1  2  0
  3  2  1  0
  4  3  2  0
  5  4  1  0
  6  5  2  0
  6  1  1  0
  7  6  1  0
  8  7  1  0
  9  8  2  0
 10  9  1  0
 11 10  2  0
 12 11  1  0
 13 12  2  0
 13  8  1  0
 14 12  1  0
 15 14  1  0
 16 14  1  0
 17 14  1  0
 19 18  1  0
 19  1  1  0
 20 19  2  0
  2 21  1  0
  3 22  1  0
  4 23  1  0
  7 24  1  0
  9 25  1  0
 10 26  1  0
 11 27  1  0
 13 28  1  0
M  CHG  1  18  -1
M  END
>  <score>  (5) 
-9.603

$$$$
=
     RDKit          3D

 28 29  0  0  0  0  0  0  0  0999 V2000
   -0.5380   67.4740   67.6120 C   0  0  0  0  0  0  0  0  0  0  0  0
   -1.9440   67.5300   67.5770 C   0  0  0  0  0  0  0  0  0  0  0  0
   -2.5980   68.1420   66.5210 C   0  0  0  0  0  0  0  0  0  0  0  0
   -1.8210   68.6850   65.5200 C   0  0  0  0  0  0  0  0  0  0  0  0
   -0.4710   68.6580   65.5120 N   0  0  0  0  0  0  0  0  0  0  0  0
    0.1760   68.0570   66.5480 C   0  0  0  0  0  0  0  0  0  0  0  0
    1.5870   68.0490   66.5760 N   0  0  0  0  0  0  0  0  0  0  0  0
    2.5890   68.4810   65.7000 C   0  0  0  0  0  0  0  0  0  0  0  0
    3.6880   69.1680   66.2390 C   0  0  0  0  0  0  0  0  0  0  0  0
    4.7220   69.6440   65.4300 C   0  0  0  0  0  0  0  0  0  0  0  0
    4.6680   69.4500   64.0530 C   0  0  0  0  0  0  0  0  0  0  0  0
    3.5740   68.7870   63.4790 C   0  0  0  0  0  0  0  0  0  0  0  0
    2.5480   68.3090   64.3140 C   0  0  0  0  0  0  0  0  0  0  0  0
    3.5040   68.5550   61.9950 C   0  0  0  0  0  0  0  0  0  0  0  0
    3.8720   67.2980   61.6160 F   0  0  0  0  0  0  0  0  0  0  0  0
    2.2490   68.7310   61.4840 F   0  0  0  0  0  0  0  0  0  0  0  0
    4.3010   69.4060   61.2890 F   0  0  0  0  0  0  0  0  0  0  0  0
    1.1780   67.3540   69.2600 O   0  0  0  0  0  1  0  0  0  0  0  0
    0.1490   66.7840   68.7660 C   0  0  0  0  0  0  0  0  0  0  0  0
   -0.3380   65.6780   69.1610 O   0  0  0  0  0  0  0  0  0  0  0  0
   -2.5281   67.0839   68.3954 H   0  0  0  0  0  0  0  0  0  0  0  0
   -3.6961   68.1930   66.4823 H   0  0  0  0  0  0  0  0  0  0  0  0
   -2.3324   69.1703   64.6756 H   0  0  0  0  0  0  0  0  0  0  0  0
    1.9654   67.6297   67.4374 H   0  0  0  0  0  0  0  0  0  0  0  0
    3.7359   69.3355   67.3251 H   0  0  0  0  0  0  0  0  0  0  0  0
    5.5766   70.1707   65.8798 H   0  0  0  0  0  0  0  0  0  0  0  0
    5.4846   69.8173   63.4141 H   0  0  0  0  0  0  0  0  0  0  0  0
    1.6911   67.7862   63.8642 H   0  0  0  0  0  0  0  0  0  0  0  0
  2  1  2  0
  3  2  1  0
  4  3  2  0
  5  4  1  0
  6  5  2  0
  6  1  1  0
  7  6  1  0
  8  7  1  0
  9  8  2  0
 10  9  1  0
 11 10  2  0
 12 11  1  0
 13 12  2  0
 13  8  1  0
 14 12  1  0
 15 14  1  0
 16 14  1  0
 17 14  1  0
 19 18  1  0
 19  1  1  0
 20 19  2  0
  2 21  1  0
  3 22  1  0
  4 23  1  0
  7 24  1  0
  9 25  1  0
 10 26  1  0
 11 27  1  0
 13 28  1  0
M  CHG  1  18  -1
M  END
>  <score>  (6) 
-9.579

$$$$
=
     RDKit          3D

 28 29  0  0  0  0  0  0  0  0999 V2000
    2.2850   68.5620   62.7580 C   0  0  0  0  0  0  0  0  0  0  0  0
    0.9360   68.3210   62.4360 C   0  0  0  0  0  0  0  0  0  0  0  0
   -0.0520   68.4630   63.3950 C   0  0  0  0  0  0  0  0  0  0  0  0
    0.3390   68.8460   64.6600 C   0  0  0  0  0  0  0  0  0  0  0  0
    1.6190   69.0860   65.0150 N   0  0  0  0  0  0  0  0  0  0  0  0
    2.5940   68.9470   64.0760 C   0  0  0  0  0  0  0  0  0  0  0  0
    3.9420   69.1580   64.4360 N   0  0  0  0  0  0  0  0  0  0  0  0
    4.5940   69.5770   65.6010 C   0  0  0  0  0  0  0  0  0  0  0  0
    5.9840   69.7600   65.5530 C   0  0  0  0  0  0  0  0  0  0  0  0
    6.7090   70.1620   66.6770 C   0  0  0  0  0  0  0  0  0  0  0  0
    6.0500   70.3770   67.8840 C   0  0  0  0  0  0  0  0  0  0  0  0
    4.6650   70.1830   67.9730 C   0  0  0  0  0  0  0  0  0  0  0  0
    3.9540   69.7850   66.8260 C   0  0  0  0  0  0  0  0  0  0  0  0
    3.9330   70.4240   69.2650 C   0  0  0  0  0  0  0  0  0  0  0  0
    4.7450   70.4650   70.3590 F   0  0  0  0  0  0  0  0  0  0  0  0
    3.2510   71.6080   69.2800 F   0  0  0  0  0  0  0  0  0  0  0  0
    2.9980   69.4680   69.5280 F   0  0  0  0  0  0  0  0  0  0  0  0
    3.1620   69.0610   60.6000 O   0  0  0  0  0  1  0  0  0  0  0  0
    3.3400   68.4180   61.6870 C   0  0  0  0  0  0  0  0  0  0  0  0
    4.3290   67.6580   61.9370 O   0  0  0  0  0  0  0  0  0  0  0  0
    0.6648   68.0174   61.4141 H   0  0  0  0  0  0  0  0  0  0  0  0
   -1.1096   68.2771   63.1565 H   0  0  0  0  0  0  0  0  0  0  0  0
   -0.4401   68.9633   65.4276 H   0  0  0  0  0  0  0  0  0  0  0  0
    4.5952   68.9579   63.6651 H   0  0  0  0  0  0  0  0  0  0  0  0
    6.5161   69.5825   64.6067 H   0  0  0  0  0  0  0  0  0  0  0  0
    7.7971   70.3082   66.6086 H   0  0  0  0  0  0  0  0  0  0  0  0
    6.6173   70.6997   68.7695 H   0  0  0  0  0  0  0  0  0  0  0  0
    2.8667   69.6337   66.8951 H   0  0  0  0  0  0  0  0  0  0  0  0
  2  1  2  0
  3  2  1  0
  4  3  2  0
  5  4  1  0
  6  5  2  0
  6  1  1  0
  7  6  1  0
  8  7  1  0
  9  8  2  0
 10  9  1  0
 11 10  2  0
 12 11  1  0
 13 12  2  0
 13  8  1  0
 14 12  1  0
 15 14  1  0
 16 14  1  0
 17 14  1  0
 19 18  1  0
 19  1  1  0
 20 19  2  0
  2 21  1  0
  3 22  1  0
  4 23  1  0
  7 24  1  0
  9 25  1  0
 10 26  1  0
 11 27  1  0
 13 28  1  0
M  CHG  1  18  -1
M  END
>  <score>  (7) 
-9.215

$$$$
=
     RDKit          3D

 28 29  0  0  0  0  0  0  0  0999 V2000
   -0.3020   67.5780   67.3620 C   0  0  0  0  0  0  0  0  0  0  0  0
   -1.5820   68.1650   67.3640 C   0  0  0  0  0  0  0  0  0  0  0  0
   -2.0870   68.7530   66.2160 C   0  0  0  0  0  0  0  0  0  0  0  0
   -1.2930   68.7370   65.0890 C   0  0  0  0  0  0  0  0  0  0  0  0
   -0.0600   68.1880   65.0410 N   0  0  0  0  0  0  0  0  0  0  0  0
    0.4410   67.6090   66.1670 C   0  0  0  0  0  0  0  0  0  0  0  0
    1.7410   67.0610   66.1470 N   0  0  0  0  0  0  0  0  0  0  0  0
    2.7170   66.8830   65.1600 C   0  0  0  0  0  0  0  0  0  0  0  0
    3.0270   65.5730   64.7640 C   0  0  0  0  0  0  0  0  0  0  0  0
    3.9990   65.3110   63.7970 C   0  0  0  0  0  0  0  0  0  0  0  0
    4.6930   66.3650   63.2110 C   0  0  0  0  0  0  0  0  0  0  0  0
    4.4240   67.6850   63.5980 C   0  0  0  0  0  0  0  0  0  0  0  0
    3.4350   67.9260   64.5700 C   0  0  0  0  0  0  0  0  0  0  0  0
    5.1530   68.8390   62.9660 C   0  0  0  0  0  0  0  0  0  0  0  0
    4.5490   69.3260   61.8460 F   0  0  0  0  0  0  0  0  0  0  0  0
    5.2810   69.9140   63.8010 F   0  0  0  0  0  0  0  0  0  0  0  0
    6.4260   68.5200   62.5950 F   0  0  0  0  0  0  0  0  0  0  0  0
    1.2630   67.4290   69.1510 O   0  0  0  0  0  1  0  0  0  0  0  0
    0.2170   66.9270   68.6220 C   0  0  0  0  0  0  0  0  0  0  0  0
   -0.4180   65.9170   69.0630 O   0  0  0  0  0  0  0  0  0  0  0  0
   -2.1852   68.1565   68.2838 H   0  0  0  0  0  0  0  0  0  0  0  0
   -3.0849   69.2157   66.2040 H   0  0  0  0  0  0  0  0  0  0  0  0
   -1.6880   69.1998   64.1726 H   0  0  0  0  0  0  0  0  0  0  0  0
    2.0398   66.7125   67.0690 H   0  0  0  0  0  0  0  0  0  0  0  0
    2.4907   64.7316   65.2271 H   0  0  0  0  0  0  0  0  0  0  0  0
    4.2156   64.2745   63.4992 H   0  0  0  0  0  0  0  0  0  0  0  0
    5.4538   66.1620   62.4429 H   0  0  0  0  0  0  0  0  0  0  0  0
    3.2220   68.9619   64.8727 H   0  0  0  0  0  0  0  0  0  0  0  0
  2  1  2  0
  3  2  1  0
  4  3  2  0
  5  4  1  0
  6  5  2  0
  6  1  1  0
  7  6  1  0
  8  7  1  0
  9  8  2  0
 10  9  1  0
 11 10  2  0
 12 11  1  0
 13 12  2  0
 13  8  1  0
 14 12  1  0
 15 14  1  0
 16 14  1  0
 17 14  1  0
 19 18  1  0
 19  1  1  0
 20 19  2  0
  2 21  1  0
  3 22  1  0
  4 23  1  0
  7 24  1  0
  9 25  1  0
 10 26  1  0
 11 27  1  0
 13 28  1  0
M  CHG  1  18  -1
M  END
>  <score>  (8) 
-9.213

$$$$
=
     RDKit          3D

 28 29  0  0  0  0  0  0  0  0999 V2000
    3.7500   68.7990   63.5880 C   0  0  0  0  0  0  0  0  0  0  0  0
    5.0300   69.3800   63.5030 C   0  0  0  0  0  0  0  0  0  0  0  0
    5.6690   69.8440   64.6410 C   0  0  0  0  0  0  0  0  0  0  0  0
    5.0060   69.7130   65.8410 C   0  0  0  0  0  0  0  0  0  0  0  0
    3.7780   69.1670   65.9710 N   0  0  0  0  0  0  0  0  0  0  0  0
    3.1460   68.7090   64.8560 C   0  0  0  0  0  0  0  0  0  0  0  0
    1.8470   68.1670   64.9650 N   0  0  0  0  0  0  0  0  0  0  0  0
    0.9850   67.8910   66.0320 C   0  0  0  0  0  0  0  0  0  0  0  0
   -0.3860   68.1340   65.8540 C   0  0  0  0  0  0  0  0  0  0  0  0
   -1.3090   67.8990   66.8750 C   0  0  0  0  0  0  0  0  0  0  0  0
   -0.8710   67.4220   68.1070 C   0  0  0  0  0  0  0  0  0  0  0  0
    0.4930   67.1880   68.3260 C   0  0  0  0  0  0  0  0  0  0  0  0
    1.4050   67.4250   67.2800 C   0  0  0  0  0  0  0  0  0  0  0  0
    0.9850   66.6590   69.6450 C   0  0  0  0  0  0  0  0  0  0  0  0
   -0.0030   66.4680   70.5640 F   0  0  0  0  0  0  0  0  0  0  0  0
    1.6130   65.4510   69.5370 F   0  0  0  0  0  0  0  0  0  0  0  0
    1.8930   67.4840   70.2390 F   0  0  0  0  0  0  0  0  0  0  0  0
    3.7200   67.4160   61.6490 O   0  0  0  0  0  1  0  0  0  0  0  0
    3.0850   68.2840   62.3340 C   0  0  0  0  0  0  0  0  0  0  0  0
    1.9420   68.7580   62.0400 O   0  0  0  0  0  0  0  0  0  0  0  0
    5.5263   69.4660   62.5251 H   0  0  0  0  0  0  0  0  0  0  0  0
    6.6686   70.3001   64.5882 H   0  0  0  0  0  0  0  0  0  0  0  0
    5.5081   70.0757   66.7500 H   0  0  0  0  0  0  0  0  0  0  0  0
    1.4417   67.9182   64.0514 H   0  0  0  0  0  0  0  0  0  0  0  0
   -0.7418   68.5188   64.8869 H   0  0  0  0  0  0  0  0  0  0  0  0
   -2.3790   68.0903   66.7062 H   0  0  0  0  0  0  0  0  0  0  0  0
   -1.5971   67.2283   68.9103 H   0  0  0  0  0  0  0  0  0  0  0  0
    2.4757   67.2384   67.4499 H   0  0  0  0  0  0  0  0  0  0  0  0
  2  1  2  0
  3  2  1  0
  4  3  2  0
  5  4  1  0
  6  5  2  0
  6  1  1  0
  7  6  1  0
  8  7  1  0
  9  8  2  0
 10  9  1  0
 11 10  2  0
 12 11  1  0
 13 12  2  0
 13  8  1  0
 14 12  1  0
 15 14  1  0
 16 14  1  0
 17 14  1  0
 19 18  1  0
 19  1  1  0
 20 19  2  0
  2 21  1  0
  3 22  1  0
  4 23  1  0
  7 24  1  0
  9 25  1  0
 10 26  1  0
 11 27  1  0
 13 28  1  0
M  CHG  1  18  -1
M  END
>  <score>  (9) 
-8.791

$$$$
