=
     RDKit          3D

 31 33  0  0  0  0  0  0  0  0999 V2000
    3.9010   61.6710   71.9950 C   0  0  2  0  0  0  0  0  0  0  0  0
    4.0970   60.8630   73.2150 N   0  0  0  0  0  0  0  0  0  0  0  0
    3.2270   60.7510   74.2530 C   0  0  0  0  0  0  0  0  0  0  0  0
    2.4280   61.5250   74.7190 O   0  0  0  0  0  0  0  0  0  0  0  0
    3.5830   59.2600   74.4220 C   0  0  0  0  0  0  0  0  0  0  0  0
    4.2200   59.3980   73.0270 C   0  0  1  0  0  0  0  0  0  0  0  0
    3.1590   59.1390   71.5820 S   0  0  0  0  0  6  0  0  0  0  0  0
    3.8620   58.4130   70.5430 O   0  0  0  0  0  0  0  0  0  0  0  0
    1.8850   58.6010   72.0430 O   0  0  0  0  0  0  0  0  0  0  0  0
    2.8950   60.9130   71.0960 C   0  0  2  0  0  0  0  0  0  0  0  0
    3.1020   61.0620   69.5790 C   0  0  0  0  0  0  0  0  0  0  0  0
    5.9880   60.8640   71.1990 O   0  0  0  0  0  1  0  0  0  0  0  0
    5.2410   61.8770   71.2400 C   0  0  0  0  0  0  0  0  0  0  0  0
    5.4100   63.0390   70.7740 O   0  0  0  0  0  0  0  0  0  0  0  0
    1.4240   61.2470   71.4450 C   0  0  0  0  0  0  0  0  0  0  0  0
    1.0420   62.6380   71.3190 N   0  0  0  0  0  0  0  0  0  0  0  0
    0.7220   63.5150   72.3110 C   0  0  0  0  0  0  0  0  0  0  0  0
    0.3570   64.6530   71.6360 C   0  0  0  0  0  0  0  0  0  0  0  0
    0.4110   64.4240   70.2900 N   0  0  0  0  0  0  0  0  0  0  0  0
    0.8130   63.1730   70.1050 N   0  0  0  0  0  0  0  0  0  0  0  0
    3.5194   62.6679   72.2608 H   0  0  0  0  0  0  0  0  0  0  0  0
    4.2854   59.0352   75.2381 H   0  0  0  0  0  0  0  0  0  0  0  0
    2.8392   58.4884   74.6698 H   0  0  0  0  0  0  0  0  0  0  0  0
    5.1079   58.7780   72.8342 H   0  0  0  0  0  0  0  0  0  0  0  0
    3.9814   61.6950   69.3894 H   0  0  0  0  0  0  0  0  0  0  0  0
    3.2610   60.0698   69.1314 H   0  0  0  0  0  0  0  0  0  0  0  0
    2.2116   61.5277   69.1314 H   0  0  0  0  0  0  0  0  0  0  0  0
    0.7777   60.6586   70.7771 H   0  0  0  0  0  0  0  0  0  0  0  0
    1.3095   61.0034   72.5116 H   0  0  0  0  0  0  0  0  0  0  0  0
    0.7496   63.3499   73.3982 H   0  0  0  0  0  0  0  0  0  0  0  0
    0.0657   65.6037   72.1065 H   0  0  0  0  0  0  0  0  0  0  0  0
  2  1  1  0
  3  2  1  0
  4  3  2  0
  5  3  1  0
  6  5  1  0
  6  2  1  0
  7  6  1  0
  8  7  2  0
  9  7  2  0
 10  7  1  0
 10  1  1  0
 10 11  1  6
 13  1  1  0
 13 12  1  0
 14 13  2  0
 15 10  1  0
 16 15  1  0
 17 16  1  0
 18 17  2  0
 19 18  1  0
 20 19  2  0
 20 16  1  0
  1 21  1  1
  5 22  1  0
  5 23  1  0
  6 24  1  1
 11 25  1  0
 11 26  1  0
 11 27  1  0
 15 28  1  0
 15 29  1  0
 17 30  1  0
 18 31  1  0
M  CHG  1  12  -1
M  END
>  <score>  (1) 
-7.011

$$$$
=
     RDKit          3D

 31 33  0  0  0  0  0  0  0  0999 V2000
    2.6750   60.3770   71.2660 C   0  0  2  0  0  0  0  0  0  0  0  0
    2.8410   60.9440   69.9140 N   0  0  0  0  0  0  0  0  0  0  0  0
    2.3980   62.1560   69.4910 C   0  0  0  0  0  0  0  0  0  0  0  0
    1.4400   62.8170   69.8090 O   0  0  0  0  0  0  0  0  0  0  0  0
    3.6640   62.3470   68.6320 C   0  0  0  0  0  0  0  0  0  0  0  0
    4.2320   61.1800   69.4600 C   0  0  1  0  0  0  0  0  0  0  0  0
    5.0500   61.5740   71.0280 S   0  0  0  0  0  6  0  0  0  0  0  0
    6.2230   60.7450   71.2260 O   0  0  0  0  0  0  0  0  0  0  0  0
    5.2210   63.0190   71.1010 O   0  0  0  0  0  0  0  0  0  0  0  0
    3.6880   61.0920   72.1940 C   0  0  2  0  0  0  0  0  0  0  0  0
    4.2700   60.2430   73.3370 C   0  0  0  0  0  0  0  0  0  0  0  0
    3.8010   58.4570   70.4370 O   0  0  0  0  0  1  0  0  0  0  0  0
    2.9400   58.8480   71.2690 C   0  0  0  0  0  0  0  0  0  0  0  0
    2.2460   58.1940   72.0990 O   0  0  0  0  0  0  0  0  0  0  0  0
    3.1230   62.4120   72.7760 C   0  0  0  0  0  0  0  0  0  0  0  0
    1.7940   62.3380   73.3430 N   0  0  0  0  0  0  0  0  0  0  0  0
    1.3100   61.4300   74.2350 C   0  0  0  0  0  0  0  0  0  0  0  0
   -0.0150   61.7660   74.3590 C   0  0  0  0  0  0  0  0  0  0  0  0
   -0.3030   62.8060   73.5210 N   0  0  0  0  0  0  0  0  0  0  0  0
    0.8120   63.1360   72.8830 N   0  0  0  0  0  0  0  0  0  0  0  0
    1.6426   60.5305   71.6132 H   0  0  0  0  0  0  0  0  0  0  0  0
    3.5376   62.1426   67.5586 H   0  0  0  0  0  0  0  0  0  0  0  0
    4.1774   63.3138   68.5241 H   0  0  0  0  0  0  0  0  0  0  0  0
    4.9337   60.5109   68.9404 H   0  0  0  0  0  0  0  0  0  0  0  0
    3.9730   60.6763   74.3035 H   0  0  0  0  0  0  0  0  0  0  0  0
    3.8858   59.2150   73.2625 H   0  0  0  0  0  0  0  0  0  0  0  0
    5.3674   60.2306   73.2625 H   0  0  0  0  0  0  0  0  0  0  0  0
    3.8079   62.7513   73.5671 H   0  0  0  0  0  0  0  0  0  0  0  0
    3.0433   63.1019   71.9229 H   0  0  0  0  0  0  0  0  0  0  0  0
    1.8539   60.6172   74.7385 H   0  0  0  0  0  0  0  0  0  0  0  0
   -0.7344   61.2737   75.0299 H   0  0  0  0  0  0  0  0  0  0  0  0
  2  1  1  0
  3  2  1  0
  4  3  2  0
  5  3  1  0
  6  5  1  0
  6  2  1  0
  7  6  1  0
  8  7  2  0
  9  7  2  0
 10  7  1  0
 10  1  1  0
 10 11  1  1
 13  1  1  0
 13 12  1  0
 14 13  2  0
 15 10  1  0
 16 15  1  0
 17 16  1  0
 18 17  2  0
 19 18  1  0
 20 19  2  0
 20 16  1  0
  1 21  1  1
  5 22  1  0
  5 23  1  0
  6 24  1  6
 11 25  1  0
 11 26  1  0
 11 27  1  0
 15 28  1  0
 15 29  1  0
 17 30  1  0
 18 31  1  0
M  CHG  1  12  -1
M  END
>  <score>  (2) 
-6.934

$$$$
=
     RDKit          3D

 31 33  0  0  0  0  0  0  0  0999 V2000
    2.0560   67.2170   66.4030 C   0  0  2  0  0  0  0  0  0  0  0  0
    0.9840   66.7240   67.2900 N   0  0  0  0  0  0  0  0  0  0  0  0
    0.7910   67.0720   68.5890 C   0  0  0  0  0  0  0  0  0  0  0  0
    1.5650   67.3880   69.4590 O   0  0  0  0  0  0  0  0  0  0  0  0
   -0.7380   67.0470   68.3950 C   0  0  0  0  0  0  0  0  0  0  0  0
   -0.4070   67.0470   66.8910 C   0  0  1  0  0  0  0  0  0  0  0  0
   -0.1750   68.6480   66.0750 S   0  0  0  0  0  6  0  0  0  0  0  0
   -0.7640   68.6470   64.7500 O   0  0  0  0  0  0  0  0  0  0  0  0
   -0.5890   69.6950   67.0010 O   0  0  0  0  0  0  0  0  0  0  0  0
    1.6800   68.6590   65.9820 C   0  0  2  0  0  0  0  0  0  0  0  0
    2.1170   69.0840   64.5690 C   0  0  0  0  0  0  0  0  0  0  0  0
    1.1220   65.8400   64.7080 O   0  0  0  0  0  1  0  0  0  0  0  0
    2.2020   66.3170   65.1470 C   0  0  0  0  0  0  0  0  0  0  0  0
    3.3890   66.1720   64.7380 O   0  0  0  0  0  0  0  0  0  0  0  0
    2.1630   69.7170   67.0050 C   0  0  0  0  0  0  0  0  0  0  0  0
    3.5960   69.8350   67.1660 N   0  0  0  0  0  0  0  0  0  0  0  0
    4.2880   70.2350   68.2690 C   0  0  0  0  0  0  0  0  0  0  0  0
    5.5950   70.2510   67.8480 C   0  0  0  0  0  0  0  0  0  0  0  0
    5.6520   69.9220   66.5240 N   0  0  0  0  0  0  0  0  0  0  0  0
    4.4140   69.6900   66.1060 N   0  0  0  0  0  0  0  0  0  0  0  0
    3.0202   67.1979   66.9322 H   0  0  0  0  0  0  0  0  0  0  0  0
   -1.2428   66.1420   68.7640 H   0  0  0  0  0  0  0  0  0  0  0  0
   -1.4154   67.7774   68.8616 H   0  0  0  0  0  0  0  0  0  0  0  0
   -1.1048   66.5012   66.2390 H   0  0  0  0  0  0  0  0  0  0  0  0
    2.9038   69.8492   64.6431 H   0  0  0  0  0  0  0  0  0  0  0  0
    2.5060   68.2094   64.0269 H   0  0  0  0  0  0  0  0  0  0  0  0
    1.2536   69.4972   64.0269 H   0  0  0  0  0  0  0  0  0  0  0  0
    1.7786   70.6962   66.6835 H   0  0  0  0  0  0  0  0  0  0  0  0
    1.7813   69.3822   67.9808 H   0  0  0  0  0  0  0  0  0  0  0  0
    3.8924   70.4864   69.2641 H   0  0  0  0  0  0  0  0  0  0  0  0
    6.4625   70.4918   68.4801 H   0  0  0  0  0  0  0  0  0  0  0  0
  2  1  1  0
  3  2  1  0
  4  3  2  0
  5  3  1  0
  6  5  1  0
  6  2  1  0
  7  6  1  0
  8  7  2  0
  9  7  2  0
 10  7  1  0
 10  1  1  0
 10 11  1  6
 13  1  1  0
 13 12  1  0
 14 13  2  0
 15 10  1  0
 16 15  1  0
 17 16  1  0
 18 17  2  0
 19 18  1  0
 20 19  2  0
 20 16  1  0
  1 21  1  1
  5 22  1  0
  5 23  1  0
  6 24  1  6
 11 25  1  0
 11 26  1  0
 11 27  1  0
 15 28  1  0
 15 29  1  0
 17 30  1  0
 18 31  1  0
M  CHG  1  12  -1
M  END
>  <score>  (3) 
-6.538

$$$$
=
     RDKit          3D

 31 33  0  0  0  0  0  0  0  0999 V2000
    2.8100   60.6120   70.3740 C   0  0  2  0  0  0  0  0  0  0  0  0
    2.9960   62.0570   70.1350 N   0  0  0  0  0  0  0  0  0  0  0  0
    2.0330   63.0130   70.2020 C   0  0  0  0  0  0  0  0  0  0  0  0
    0.8500   62.9790   69.9700 O   0  0  0  0  0  0  0  0  0  0  0  0
    3.0330   64.0110   70.8190 C   0  0  0  0  0  0  0  0  0  0  0  0
    3.9110   62.7690   71.0570 C   0  0  1  0  0  0  0  0  0  0  0  0
    3.6590   61.8360   72.5900 S   0  0  0  0  0  6  0  0  0  0  0  0
    4.9240   61.3880   73.1410 O   0  0  0  0  0  0  0  0  0  0  0  0
    2.7790   62.6100   73.4550 O   0  0  0  0  0  0  0  0  0  0  0  0
    2.6880   60.4090   71.9040 C   0  0  2  0  0  0  0  0  0  0  0  0
    3.2560   59.0910   72.4560 C   0  0  0  0  0  0  0  0  0  0  0  0
    3.7080   58.6680   69.3480 O   0  0  0  0  0  1  0  0  0  0  0  0
    4.0080   59.7950   69.8230 C   0  0  0  0  0  0  0  0  0  0  0  0
    5.1310   60.3650   69.9340 O   0  0  0  0  0  0  0  0  0  0  0  0
    1.2340   60.5890   72.4070 C   0  0  0  0  0  0  0  0  0  0  0  0
    0.8600   59.7980   73.5600 N   0  0  0  0  0  0  0  0  0  0  0  0
    1.1060   60.0590   74.8750 C   0  0  0  0  0  0  0  0  0  0  0  0
    0.6200   58.9520   75.5250 C   0  0  0  0  0  0  0  0  0  0  0  0
    0.1540   58.0520   74.6090 N   0  0  0  0  0  0  0  0  0  0  0  0
    0.3260   58.5720   73.4010 N   0  0  0  0  0  0  0  0  0  0  0  0
    1.9070   60.2584   69.8548 H   0  0  0  0  0  0  0  0  0  0  0  0
    3.4481   64.7517   70.1197 H   0  0  0  0  0  0  0  0  0  0  0  0
    2.7622   64.7179   71.6171 H   0  0  0  0  0  0  0  0  0  0  0  0
    4.9986   62.9237   71.0005 H   0  0  0  0  0  0  0  0  0  0  0  0
    3.2441   59.1186   73.5556 H   0  0  0  0  0  0  0  0  0  0  0  0
    2.6403   58.2503   72.1036 H   0  0  0  0  0  0  0  0  0  0  0  0
    4.2899   58.9612   72.1036 H   0  0  0  0  0  0  0  0  0  0  0  0
    1.0963   61.6490   72.6668 H   0  0  0  0  0  0  0  0  0  0  0  0
    0.5904   60.2401   71.5860 H   0  0  0  0  0  0  0  0  0  0  0  0
    1.5825   60.9485   75.3129 H   0  0  0  0  0  0  0  0  0  0  0  0
    0.6077   58.8112   76.6159 H   0  0  0  0  0  0  0  0  0  0  0  0
  2  1  1  0
  3  2  1  0
  4  3  2  0
  5  3  1  0
  6  5  1  0
  6  2  1  0
  7  6  1  0
  8  7  2  0
  9  7  2  0
 10  7  1  0
 10  1  1  0
 10 11  1  6
 13  1  1  0
 13 12  1  0
 14 13  2  0
 15 10  1  0
 16 15  1  0
 17 16  1  0
 18 17  2  0
 19 18  1  0
 20 19  2  0
 20 16  1  0
  1 21  1  6
  5 22  1  0
  5 23  1  0
  6 24  1  6
 11 25  1  0
 11 26  1  0
 11 27  1  0
 15 28  1  0
 15 29  1  0
 17 30  1  0
 18 31  1  0
M  CHG  1  12  -1
M  END
>  <score>  (4) 
-6.128

$$$$
=
     RDKit          3D

 31 33  0  0  0  0  0  0  0  0999 V2000
    2.6150   68.7650   63.5870 C   0  0  2  0  0  0  0  0  0  0  0  0
    4.0070   69.1570   63.2920 N   0  0  0  0  0  0  0  0  0  0  0  0
    4.9510   69.5150   64.2000 C   0  0  0  0  0  0  0  0  0  0  0  0
    4.8690   70.0680   65.2690 O   0  0  0  0  0  0  0  0  0  0  0  0
    6.0440   68.7960   63.3840 C   0  0  0  0  0  0  0  0  0  0  0  0
    4.8640   68.1300   62.6540 C   0  0  1  0  0  0  0  0  0  0  0  0
    4.1770   66.6110   63.3630 S   0  0  0  0  0  6  0  0  0  0  0  0
    3.8340   65.6590   62.3240 O   0  0  0  0  0  0  0  0  0  0  0  0
    5.0670   66.1620   64.4260 O   0  0  0  0  0  0  0  0  0  0  0  0
    2.6510   67.3220   64.1470 C   0  0  2  0  0  0  0  0  0  0  0  0
    1.4410   66.4360   63.8050 C   0  0  0  0  0  0  0  0  0  0  0  0
    2.3730   68.9410   61.2320 O   0  0  0  0  0  1  0  0  0  0  0  0
    1.7350   68.8180   62.3100 C   0  0  0  0  0  0  0  0  0  0  0  0
    0.4920   68.7430   62.5230 O   0  0  0  0  0  0  0  0  0  0  0  0
    2.8900   67.2890   65.6770 C   0  0  0  0  0  0  0  0  0  0  0  0
    1.8810   67.9320   66.4910 N   0  0  0  0  0  0  0  0  0  0  0  0
    1.9070   69.1820   67.0320 C   0  0  0  0  0  0  0  0  0  0  0  0
    0.7540   69.2420   67.7740 C   0  0  0  0  0  0  0  0  0  0  0  0
    0.1050   68.0420   67.7090 N   0  0  0  0  0  0  0  0  0  0  0  0
    0.8180   67.2340   66.9340 N   0  0  0  0  0  0  0  0  0  0  0  0
    2.1750   69.4618   64.3156 H   0  0  0  0  0  0  0  0  0  0  0  0
    6.6714   69.4507   62.7613 H   0  0  0  0  0  0  0  0  0  0  0  0
    6.8636   68.2267   63.8468 H   0  0  0  0  0  0  0  0  0  0  0  0
    5.0205   67.8944   61.5910 H   0  0  0  0  0  0  0  0  0  0  0  0
    0.9665   66.0886   64.7346 H   0  0  0  0  0  0  0  0  0  0  0  0
    0.7150   67.0176   63.2179 H   0  0  0  0  0  0  0  0  0  0  0  0
    1.7762   65.5683   63.2179 H   0  0  0  0  0  0  0  0  0  0  0  0
    2.9498   66.2349   65.9856 H   0  0  0  0  0  0  0  0  0  0  0  0
    3.8148   67.8605   65.8449 H   0  0  0  0  0  0  0  0  0  0  0  0
    2.6730   69.9610   66.9040 H   0  0  0  0  0  0  0  0  0  0  0  0
    0.4059   70.1218   68.3351 H   0  0  0  0  0  0  0  0  0  0  0  0
  2  1  1  0
  3  2  1  0
  4  3  2  0
  5  3  1  0
  6  5  1  0
  6  2  1  0
  7  6  1  0
  8  7  2  0
  9  7  2  0
 10  7  1  0
 10  1  1  0
 10 11  1  1
 13  1  1  0
 13 12  1  0
 14 13  2  0
 15 10  1  0
 16 15  1  0
 17 16  1  0
 18 17  2  0
 19 18  1  0
 20 19  2  0
 20 16  1  0
  1 21  1  1
  5 22  1  0
  5 23  1  0
  6 24  1  6
 11 25  1  0
 11 26  1  0
 11 27  1  0
 15 28  1  0
 15 29  1  0
 17 30  1  0
 18 31  1  0
M  CHG  1  12  -1
M  END
>  <score>  (5) 
-6.042

$$$$
=
     RDKit          3D

 31 33  0  0  0  0  0  0  0  0999 V2000
    3.4610   68.0710   64.5700 C   0  0  2  0  0  0  0  0  0  0  0  0
    3.3210   68.7300   63.2570 N   0  0  0  0  0  0  0  0  0  0  0  0
    3.3290   68.1160   62.0450 C   0  0  0  0  0  0  0  0  0  0  0  0
    3.8920   67.1250   61.6500 O   0  0  0  0  0  0  0  0  0  0  0  0
    2.2510   69.0860   61.5190 C   0  0  0  0  0  0  0  0  0  0  0  0
    2.0440   69.4380   63.0040 C   0  0  1  0  0  0  0  0  0  0  0  0
    0.8860   68.4250   63.9600 S   0  0  0  0  0  6  0  0  0  0  0  0
    0.1050   69.2430   64.8680 O   0  0  0  0  0  0  0  0  0  0  0  0
    0.1640   67.5620   63.0350 O   0  0  0  0  0  0  0  0  0  0  0  0
    2.1120   67.3820   64.8880 C   0  0  2  0  0  0  0  0  0  0  0  0
    1.7160   67.3290   66.3740 C   0  0  0  0  0  0  0  0  0  0  0  0
    2.8500   69.4050   66.4370 O   0  0  0  0  0  1  0  0  0  0  0  0
    3.8080   69.1000   65.6790 C   0  0  0  0  0  0  0  0  0  0  0  0
    5.0050   69.5050   65.6660 O   0  0  0  0  0  0  0  0  0  0  0  0
    2.0200   65.9590   64.2840 C   0  0  0  0  0  0  0  0  0  0  0  0
    3.1750   65.1110   64.4810 N   0  0  0  0  0  0  0  0  0  0  0  0
    4.1780   64.8380   63.6000 C   0  0  0  0  0  0  0  0  0  0  0  0
    4.9540   63.9180   64.2610 C   0  0  0  0  0  0  0  0  0  0  0  0
    4.3870   63.6260   65.4680 N   0  0  0  0  0  0  0  0  0  0  0  0
    3.2800   64.3480   65.5860 N   0  0  0  0  0  0  0  0  0  0  0  0
    4.2806   67.3381   64.5366 H   0  0  0  0  0  0  0  0  0  0  0  0
    2.6255   69.9071   60.8901 H   0  0  0  0  0  0  0  0  0  0  0  0
    1.4319   68.7726   60.8551 H   0  0  0  0  0  0  0  0  0  0  0  0
    1.7514   70.4757   63.2219 H   0  0  0  0  0  0  0  0  0  0  0  0
    2.6143   67.4492   66.9974 H   0  0  0  0  0  0  0  0  0  0  0  0
    1.0062   68.1401   66.5935 H   0  0  0  0  0  0  0  0  0  0  0  0
    1.2444   66.3597   66.5935 H   0  0  0  0  0  0  0  0  0  0  0  0
    1.1524   65.4566   64.7367 H   0  0  0  0  0  0  0  0  0  0  0  0
    1.9397   66.1030   63.1964 H   0  0  0  0  0  0  0  0  0  0  0  0
    4.3304   65.2567   62.5943 H   0  0  0  0  0  0  0  0  0  0  0  0
    5.8886   63.4832   63.8771 H   0  0  0  0  0  0  0  0  0  0  0  0
  2  1  1  0
  3  2  1  0
  4  3  2  0
  5  3  1  0
  6  5  1  0
  6  2  1  0
  7  6  1  0
  8  7  2  0
  9  7  2  0
 10  7  1  0
 10  1  1  0
 10 11  1  1
 13  1  1  0
 13 12  1  0
 14 13  2  0
 15 10  1  0
 16 15  1  0
 17 16  1  0
 18 17  2  0
 19 18  1  0
 20 19  2  0
 20 16  1  0
  1 21  1  6
  5 22  1  0
  5 23  1  0
  6 24  1  6
 11 25  1  0
 11 26  1  0
 11 27  1  0
 15 28  1  0
 15 29  1  0
 17 30  1  0
 18 31  1  0
M  CHG  1  12  -1
M  END
>  <score>  (6) 
-5.801

$$$$
=
     RDKit          3D

 31 33  0  0  0  0  0  0  0  0999 V2000
    1.0200   60.7930   72.5150 C   0  0  2  0  0  0  0  0  0  0  0  0
    0.7220   59.4540   73.0600 N   0  0  0  0  0  0  0  0  0  0  0  0
    1.5090   58.3510   72.9610 C   0  0  0  0  0  0  0  0  0  0  0  0
    2.2830   57.9910   72.1090 O   0  0  0  0  0  0  0  0  0  0  0  0
    1.1180   57.9140   74.3870 C   0  0  0  0  0  0  0  0  0  0  0  0
    0.5890   59.3520   74.5320 C   0  0  1  0  0  0  0  0  0  0  0  0
    1.7520   60.6300   75.0780 S   0  0  0  0  0  6  0  0  0  0  0  0
    1.1170   61.5530   75.9990 O   0  0  0  0  0  0  0  0  0  0  0  0
    2.9790   59.9740   75.5130 O   0  0  0  0  0  0  0  0  0  0  0  0
    2.0790   61.4410   73.4390 C   0  0  2  0  0  0  0  0  0  0  0  0
    1.9890   62.9690   73.5990 C   0  0  0  0  0  0  0  0  0  0  0  0
   -0.1940   62.6510   71.6730 O   0  0  0  0  0  1  0  0  0  0  0  0
   -0.2550   61.6740   72.4650 C   0  0  0  0  0  0  0  0  0  0  0  0
   -1.1840   61.3010   73.2360 O   0  0  0  0  0  0  0  0  0  0  0  0
    3.5250   61.0550   73.0420 C   0  0  0  0  0  0  0  0  0  0  0  0
    3.8180   61.0670   71.6250 N   0  0  0  0  0  0  0  0  0  0  0  0
    3.3550   61.9300   70.6780 C   0  0  0  0  0  0  0  0  0  0  0  0
    3.8680   61.4360   69.5040 C   0  0  0  0  0  0  0  0  0  0  0  0
    4.5640   60.2880   69.7580 N   0  0  0  0  0  0  0  0  0  0  0  0
    4.5080   60.0560   71.0630 N   0  0  0  0  0  0  0  0  0  0  0  0
    1.3950   60.7050   71.4846 H   0  0  0  0  0  0  0  0  0  0  0  0
    0.3534   57.1252   74.4427 H   0  0  0  0  0  0  0  0  0  0  0  0
    1.8290   57.4607   75.0933 H   0  0  0  0  0  0  0  0  0  0  0  0
   -0.2925   59.4834   75.1768 H   0  0  0  0  0  0  0  0  0  0  0  0
    1.9739   63.2254   74.6686 H   0  0  0  0  0  0  0  0  0  0  0  0
    2.8610   63.4397   73.1214 H   0  0  0  0  0  0  0  0  0  0  0  0
    1.0678   63.3341   73.1214 H   0  0  0  0  0  0  0  0  0  0  0  0
    4.2092   61.7625   73.5332 H   0  0  0  0  0  0  0  0  0  0  0  0
    3.6519   60.0104   73.3624 H   0  0  0  0  0  0  0  0  0  0  0  0
    2.7187   62.8159   70.8206 H   0  0  0  0  0  0  0  0  0  0  0  0
    3.7386   61.8938   68.5122 H   0  0  0  0  0  0  0  0  0  0  0  0
  2  1  1  0
  3  2  1  0
  4  3  2  0
  5  3  1  0
  6  5  1  0
  6  2  1  0
  7  6  1  0
  8  7  2  0
  9  7  2  0
 10  7  1  0
 10  1  1  0
 10 11  1  1
 13  1  1  0
 13 12  1  0
 14 13  2  0
 15 10  1  0
 16 15  1  0
 17 16  1  0
 18 17  2  0
 19 18  1  0
 20 19  2  0
 20 16  1  0
  1 21  1  6
  5 22  1  0
  5 23  1  0
  6 24  1  6
 11 25  1  0
 11 26  1  0
 11 27  1  0
 15 28  1  0
 15 29  1  0
 17 30  1  0
 18 31  1  0
M  CHG  1  12  -1
M  END
>  <score>  (7) 
-5.659

$$$$
=
     RDKit          3D

 31 33  0  0  0  0  0  0  0  0999 V2000
    4.4520   68.0570   65.0540 C   0  0  2  0  0  0  0  0  0  0  0  0
    4.6950   67.3960   63.7570 N   0  0  0  0  0  0  0  0  0  0  0  0
    4.5790   66.0670   63.4970 C   0  0  0  0  0  0  0  0  0  0  0  0
    4.7550   65.0950   64.1900 O   0  0  0  0  0  0  0  0  0  0  0  0
    4.0060   66.3650   62.0970 C   0  0  0  0  0  0  0  0  0  0  0  0
    3.8140   67.7950   62.6340 C   0  0  1  0  0  0  0  0  0  0  0  0
    2.2740   68.1700   63.5120 S   0  0  0  0  0  6  0  0  0  0  0  0
    1.7860   69.4910   63.1660 O   0  0  0  0  0  0  0  0  0  0  0  0
    1.3660   67.0440   63.3390 O   0  0  0  0  0  0  0  0  0  0  0  0
    2.9180   68.1310   65.2540 C   0  0  2  0  0  0  0  0  0  0  0  0
    2.3980   69.3610   66.0180 C   0  0  0  0  0  0  0  0  0  0  0  0
    5.3620   69.9510   63.9470 O   0  0  0  0  0  1  0  0  0  0  0  0
    5.0620   69.4840   65.0780 C   0  0  0  0  0  0  0  0  0  0  0  0
    5.1860   69.9840   66.2310 O   0  0  0  0  0  0  0  0  0  0  0  0
    2.3460   66.8470   65.9030 C   0  0  0  0  0  0  0  0  0  0  0  0
    1.2330   67.0360   66.8080 N   0  0  0  0  0  0  0  0  0  0  0  0
    1.2690   67.2480   68.1530 C   0  0  0  0  0  0  0  0  0  0  0  0
   -0.0540   67.2660   68.5180 C   0  0  0  0  0  0  0  0  0  0  0  0
   -0.8330   67.0170   67.4240 N   0  0  0  0  0  0  0  0  0  0  0  0
   -0.0310   66.8540   66.3800 N   0  0  0  0  0  0  0  0  0  0  0  0
    4.9290   67.4846   65.8632 H   0  0  0  0  0  0  0  0  0  0  0  0
    4.7213   66.2678   61.2670 H   0  0  0  0  0  0  0  0  0  0  0  0
    3.1937   65.7791   61.6422 H   0  0  0  0  0  0  0  0  0  0  0  0
    3.9213   68.6081   61.9010 H   0  0  0  0  0  0  0  0  0  0  0  0
    2.4746   69.1798   67.1003 H   0  0  0  0  0  0  0  0  0  0  0  0
    3.0011   70.2411   65.7500 H   0  0  0  0  0  0  0  0  0  0  0  0
    1.3465   69.5416   65.7500 H   0  0  0  0  0  0  0  0  0  0  0  0
    2.0125   66.1806   65.0938 H   0  0  0  0  0  0  0  0  0  0  0  0
    3.1612   66.4363   66.5168 H   0  0  0  0  0  0  0  0  0  0  0  0
    2.1521   67.3751   68.7964 H   0  0  0  0  0  0  0  0  0  0  0  0
   -0.4292   67.4523   69.5351 H   0  0  0  0  0  0  0  0  0  0  0  0
  2  1  1  0
  3  2  1  0
  4  3  2  0
  5  3  1  0
  6  5  1  0
  6  2  1  0
  7  6  1  0
  8  7  2  0
  9  7  2  0
 10  7  1  0
 10  1  1  0
 10 11  1  1
 13  1  1  0
 13 12  1  0
 14 13  2  0
 15 10  1  0
 16 15  1  0
 17 16  1  0
 18 17  2  0
 19 18  1  0
 20 19  2  0
 20 16  1  0
  1 21  1  1
  5 22  1  0
  5 23  1  0
  6 24  1  6
 11 25  1  0
 11 26  1  0
 11 27  1  0
 15 28  1  0
 15 29  1  0
 17 30  1  0
 18 31  1  0
M  CHG  1  12  -1
M  END
>  <score>  (8) 
-5.6

$$$$
=
     RDKit          3D

 31 33  0  0  0  0  0  0  0  0999 V2000
    2.4620   60.1030   74.5830 C   0  0  2  0  0  0  0  0  0  0  0  0
    1.5520   61.0390   75.2710 N   0  0  0  0  0  0  0  0  0  0  0  0
    1.2650   62.3100   74.8870 C   0  0  0  0  0  0  0  0  0  0  0  0
    1.9220   63.1430   74.3130 O   0  0  0  0  0  0  0  0  0  0  0  0
   -0.2020   62.1390   75.3290 C   0  0  0  0  0  0  0  0  0  0  0  0
    0.1280   60.6350   75.3570 C   0  0  1  0  0  0  0  0  0  0  0  0
   -0.0640   59.6970   73.8190 S   0  0  0  0  0  6  0  0  0  0  0  0
   -0.6220   58.3840   74.0760 O   0  0  0  0  0  0  0  0  0  0  0  0
   -0.7460   60.5460   72.8500 O   0  0  0  0  0  0  0  0  0  0  0  0
    1.7230   59.5790   73.3270 C   0  0  2  0  0  0  0  0  0  0  0  0
    2.0440   58.1320   72.9120 C   0  0  0  0  0  0  0  0  0  0  0  0
    1.9290   58.5120   76.2630 O   0  0  0  0  0  1  0  0  0  0  0  0
    2.8500   58.9180   75.5060 C   0  0  0  0  0  0  0  0  0  0  0  0
    4.0440   58.5230   75.3830 O   0  0  0  0  0  0  0  0  0  0  0  0
    1.9030   60.5120   72.1050 C   0  0  0  0  0  0  0  0  0  0  0  0
    3.2390   60.5860   71.5540 N   0  0  0  0  0  0  0  0  0  0  0  0
    4.3090   61.2790   72.0340 C   0  0  0  0  0  0  0  0  0  0  0  0
    5.2830   61.0740   71.0880 C   0  0  0  0  0  0  0  0  0  0  0  0
    4.7740   60.3290   70.0630 N   0  0  0  0  0  0  0  0  0  0  0  0
    3.5080   60.0520   70.3480 N   0  0  0  0  0  0  0  0  0  0  0  0
    3.3932   60.6194   74.3069 H   0  0  0  0  0  0  0  0  0  0  0  0
   -0.4527   62.5823   76.3040 H   0  0  0  0  0  0  0  0  0  0  0  0
   -1.0514   62.5580   74.7695 H   0  0  0  0  0  0  0  0  0  0  0  0
   -0.3968   60.0355   76.1154 H   0  0  0  0  0  0  0  0  0  0  0  0
    2.1810   57.5143   73.8118 H   0  0  0  0  0  0  0  0  0  0  0  0
    1.2134   57.7293   72.3138 H   0  0  0  0  0  0  0  0  0  0  0  0
    2.9670   58.1183   72.3138 H   0  0  0  0  0  0  0  0  0  0  0  0
    1.2302   60.1584   71.3098 H   0  0  0  0  0  0  0  0  0  0  0  0
    1.6764   61.5248   72.4696 H   0  0  0  0  0  0  0  0  0  0  0  0
    4.3769   61.8655   72.9621 H   0  0  0  0  0  0  0  0  0  0  0  0
    6.3144   61.4517   71.1468 H   0  0  0  0  0  0  0  0  0  0  0  0
  2  1  1  0
  3  2  1  0
  4  3  2  0
  5  3  1  0
  6  5  1  0
  6  2  1  0
  7  6  1  0
  8  7  2  0
  9  7  2  0
 10  7  1  0
 10  1  1  0
 10 11  1  6
 13  1  1  0
 13 12  1  0
 14 13  2  0
 15 10  1  0
 16 15  1  0
 17 16  1  0
 18 17  2  0
 19 18  1  0
 20 19  2  0
 20 16  1  0
  1 21  1  6
  5 22  1  0
  5 23  1  0
  6 24  1  1
 11 25  1  0
 11 26  1  0
 11 27  1  0
 15 28  1  0
 15 29  1  0
 17 30  1  0
 18 31  1  0
M  CHG  1  12  -1
M  END
>  <score>  (9) 
-5.447

$$$$
