=
     RDKit          3D

 82 87  0  0  0  0  0  0  0  0999 V2000
    0.3860   63.3750   70.4140 C   0  0  0  0  0  0  0  0  0  0  0  0
    0.6680   64.4210   71.4720 N   0  0  2  0  0  4  0  0  0  0  0  0
    0.0630   64.0500   72.8200 C   0  0  0  0  0  0  0  0  0  0  0  0
    1.1530   63.7560   73.8430 C   0  0  0  0  0  0  0  0  0  0  0  0
    1.3020   62.2480   74.0520 C   0  0  0  0  0  0  0  0  0  0  0  0
    2.7180   61.9030   73.9180 N   0  0  0  0  0  0  0  0  0  0  0  0
    2.9240   61.0030   72.8240 C   0  0  0  0  0  0  0  0  0  0  0  0
    3.3960   61.5310   71.6050 C   0  0  0  0  0  0  0  0  0  0  0  0
    3.7650   62.9900   71.4750 C   0  0  0  0  0  0  0  0  0  0  0  0
    4.5900   63.3110   70.2290 C   0  0  0  0  0  0  0  0  0  0  0  0
    3.9850   62.6400   69.0040 C   0  0  0  0  0  0  0  0  0  0  0  0
    4.0100   61.1260   69.1780 C   0  0  0  0  0  0  0  0  0  0  0  0
    3.4800   60.6700   70.5130 C   0  0  0  0  0  0  0  0  0  0  0  0
    3.1450   59.3610   70.5820 N   0  0  0  0  0  0  0  0  0  0  0  0
    2.7130   58.8530   71.7430 C   0  0  0  0  0  0  0  0  0  0  0  0
    2.5730   59.6250   72.9130 C   0  0  0  0  0  0  0  0  0  0  0  0
    2.0960   58.9860   74.0880 C   0  0  0  0  0  0  0  0  0  0  0  0
    1.7720   57.6290   74.0980 C   0  0  0  0  0  0  0  0  0  0  0  0
    1.9160   56.8860   72.9370 C   0  0  0  0  0  0  0  0  0  0  0  0
    2.3830   57.5050   71.7770 C   0  0  0  0  0  0  0  0  0  0  0  0
    0.2290   65.7890   70.9780 C   0  0  0  0  0  0  0  0  0  0  0  0
    1.1780   66.3940   69.9390 C   0  0  0  0  0  0  0  0  0  0  0  0
    0.5270   67.1670   68.7860 C   0  0  0  0  0  0  0  0  0  0  0  0
    1.4720   67.4050   67.6070 C   0  0  0  0  0  0  0  0  0  0  0  0
    1.3700   69.1220   67.0030 S   0  0  0  0  0  0  0  0  0  0  0  0
    3.0820   69.3530   66.4480 C   0  0  0  0  0  0  0  0  0  0  0  0
    3.4310   69.0610   65.1120 C   0  0  0  0  0  0  0  0  0  0  0  0
    2.4500   68.4770   64.1190 C   0  0  0  0  0  0  0  0  0  0  0  0
    3.0960   67.9160   62.8520 C   0  0  0  0  0  0  0  0  0  0  0  0
    4.1190   68.8970   62.3020 C   0  0  0  0  0  0  0  0  0  0  0  0
    5.2340   69.0950   63.3200 C   0  0  0  0  0  0  0  0  0  0  0  0
    4.7320   69.3700   64.7140 C   0  0  0  0  0  0  0  0  0  0  0  0
    5.6550   69.8890   65.5550 N   0  0  0  0  0  0  0  0  0  0  0  0
    5.3410   70.0950   66.8380 C   0  0  0  0  0  0  0  0  0  0  0  0
    4.0620   69.8370   67.3630 C   0  0  0  0  0  0  0  0  0  0  0  0
    3.8520   70.0740   68.7510 C   0  0  0  0  0  0  0  0  0  0  0  0
    4.8680   70.5630   69.5730 C   0  0  0  0  0  0  0  0  0  0  0  0
    6.1140   70.8270   69.0300 C   0  0  0  0  0  0  0  0  0  0  0  0
    6.3350   70.5880   67.6730 C   0  0  0  0  0  0  0  0  0  0  0  0
    0.1291   62.4221   70.8998 H   0  0  0  0  0  0  0  0  0  0  0  0
   -0.4552   63.7053   69.7868 H   0  0  0  0  0  0  0  0  0  0  0  0
    1.2792   63.2377   69.7868 H   0  0  0  0  0  0  0  0  0  0  0  0
    1.6844   64.4605   71.6339 H   0  0  0  0  0  0  0  0  0  0  0  0
   -0.5531   64.8868   73.1807 H   0  0  0  0  0  0  0  0  0  0  0  0
   -0.5520   63.1469   72.6925 H   0  0  0  0  0  0  0  0  0  0  0  0
    2.1075   64.1672   73.4826 H   0  0  0  0  0  0  0  0  0  0  0  0
    0.8758   64.2212   74.8005 H   0  0  0  0  0  0  0  0  0  0  0  0
    0.9461   61.9748   75.0563 H   0  0  0  0  0  0  0  0  0  0  0  0
    0.7066   61.7014   73.3059 H   0  0  0  0  0  0  0  0  0  0  0  0
    3.4663   62.2600   74.5291 H   0  0  0  0  0  0  0  0  0  0  0  0
    2.8373   63.5800   71.4377 H   0  0  0  0  0  0  0  0  0  0  0  0
    4.3897   63.2403   72.3451 H   0  0  0  0  0  0  0  0  0  0  0  0
    4.6052   64.4001   70.0752 H   0  0  0  0  0  0  0  0  0  0  0  0
    5.6137   62.9349   70.3725 H   0  0  0  0  0  0  0  0  0  0  0  0
    2.9449   62.9760   68.8801 H   0  0  0  0  0  0  0  0  0  0  0  0
    4.5716   62.9126   68.1143 H   0  0  0  0  0  0  0  0  0  0  0  0
    3.3958   60.6734   68.3856 H   0  0  0  0  0  0  0  0  0  0  0  0
    5.0617   60.8089   69.1197 H   0  0  0  0  0  0  0  0  0  0  0  0
    1.9794   59.5738   75.0105 H   0  0  0  0  0  0  0  0  0  0  0  0
    1.4054   57.1529   75.0194 H   0  0  0  0  0  0  0  0  0  0  0  0
    1.6638   55.8153   72.9300 H   0  0  0  0  0  0  0  0  0  0  0  0
    2.4931   56.9062   70.8609 H   0  0  0  0  0  0  0  0  0  0  0  0
   -0.7685   65.6924   70.5246 H   0  0  0  0  0  0  0  0  0  0  0  0
    0.2271   66.4629   71.8474 H   0  0  0  0  0  0  0  0  0  0  0  0
    1.8532   67.0848   70.4653 H   0  0  0  0  0  0  0  0  0  0  0  0
    1.6791   65.5356   69.4677 H   0  0  0  0  0  0  0  0  0  0  0  0
   -0.3408   66.5939   68.4276 H   0  0  0  0  0  0  0  0  0  0  0  0
    0.2393   68.1540   69.1771 H   0  0  0  0  0  0  0  0  0  0  0  0
    2.5037   67.2004   67.9292 H   0  0  0  0  0  0  0  0  0  0  0  0
    1.1765   66.7333   66.7875 H   0  0  0  0  0  0  0  0  0  0  0  0
    1.9010   67.6631   64.6151 H   0  0  0  0  0  0  0  0  0  0  0  0
    1.7958   69.3019   63.8003 H   0  0  0  0  0  0  0  0  0  0  0  0
    3.5962   66.9656   63.0900 H   0  0  0  0  0  0  0  0  0  0  0  0
    2.3150   67.7518   62.0950 H   0  0  0  0  0  0  0  0  0  0  0  0
    4.5423   68.4994   61.3678 H   0  0  0  0  0  0  0  0  0  0  0  0
    3.6301   69.8620   62.1027 H   0  0  0  0  0  0  0  0  0  0  0  0
    5.8491   68.1834   63.3447 H   0  0  0  0  0  0  0  0  0  0  0  0
    5.8093   69.9773   63.0029 H   0  0  0  0  0  0  0  0  0  0  0  0
    2.8635   69.8663   69.1866 H   0  0  0  0  0  0  0  0  0  0  0  0
    4.6807   70.7372   70.6428 H   0  0  0  0  0  0  0  0  0  0  0  0
    6.9226   71.2217   69.6627 H   0  0  0  0  0  0  0  0  0  0  0  0
    7.3291   70.7970   67.2510 H   0  0  0  0  0  0  0  0  0  0  0  0
  2  1  1  0
  3  2  1  0
  4  3  1  0
  5  4  1  0
  6  5  1  0
  7  6  1  0
  8  7  1  0
  9  8  1  0
 10  9  1  0
 11 10  1  0
 12 11  1  0
 13 12  1  0
 13  8  2  0
 14 13  1  0
 15 14  2  0
 16 15  1  0
 16  7  2  0
 17 16  1  0
 18 17  2  0
 19 18  1  0
 20 19  2  0
 20 15  1  0
 21  2  1  0
 22 21  1  0
 23 22  1  0
 24 23  1  0
 25 24  1  0
 26 25  1  0
 27 26  1  0
 28 27  1  0
 29 28  1  0
 30 29  1  0
 31 30  1  0
 32 31  1  0
 32 27  2  0
 33 32  1  0
 34 33  2  0
 35 34  1  0
 35 26  2  0
 36 35  1  0
 37 36  2  0
 38 37  1  0
 39 34  1  0
 39 38  2  0
  1 40  1  0
  1 41  1  0
  1 42  1  0
  2 43  1  1
  3 44  1  0
  3 45  1  0
  4 46  1  0
  4 47  1  0
  5 48  1  0
  5 49  1  0
  6 50  1  0
  9 51  1  0
  9 52  1  0
 10 53  1  0
 10 54  1  0
 11 55  1  0
 11 56  1  0
 12 57  1  0
 12 58  1  0
 17 59  1  0
 18 60  1  0
 19 61  1  0
 20 62  1  0
 21 63  1  0
 21 64  1  0
 22 65  1  0
 22 66  1  0
 23 67  1  0
 23 68  1  0
 24 69  1  0
 24 70  1  0
 28 71  1  0
 28 72  1  0
 29 73  1  0
 29 74  1  0
 30 75  1  0
 30 76  1  0
 31 77  1  0
 31 78  1  0
 36 79  1  0
 37 80  1  0
 38 81  1  0
 39 82  1  0
M  CHG  1   2   1
M  END
>  <score>  (1) 
-12.077

$$$$
=
     RDKit          3D

 82 87  0  0  0  0  0  0  0  0999 V2000
    0.2740   63.3210   70.3160 C   0  0  0  0  0  0  0  0  0  0  0  0
    0.6780   64.3060   71.3940 N   0  0  2  0  0  4  0  0  0  0  0  0
    0.1480   63.9050   72.7650 C   0  0  0  0  0  0  0  0  0  0  0  0
    1.2890   63.7240   73.7580 C   0  0  0  0  0  0  0  0  0  0  0  0
    1.4690   62.2450   74.1040 C   0  0  0  0  0  0  0  0  0  0  0  0
    2.8750   61.8940   73.9010 N   0  0  0  0  0  0  0  0  0  0  0  0
    3.0250   61.0020   72.7910 C   0  0  0  0  0  0  0  0  0  0  0  0
    3.4340   61.5400   71.5540 C   0  0  0  0  0  0  0  0  0  0  0  0
    3.7970   62.9990   71.4160 C   0  0  0  0  0  0  0  0  0  0  0  0
    4.5570   63.3290   70.1320 C   0  0  0  0  0  0  0  0  0  0  0  0
    3.8910   62.6670   68.9340 C   0  0  0  0  0  0  0  0  0  0  0  0
    3.9240   61.1520   69.0960 C   0  0  0  0  0  0  0  0  0  0  0  0
    3.4620   60.6860   70.4520 C   0  0  0  0  0  0  0  0  0  0  0  0
    3.1300   59.3770   70.5290 N   0  0  0  0  0  0  0  0  0  0  0  0
    2.7570   58.8600   71.7070 C   0  0  0  0  0  0  0  0  0  0  0  0
    2.6780   59.6240   72.8880 C   0  0  0  0  0  0  0  0  0  0  0  0
    2.2620   58.9750   74.0810 C   0  0  0  0  0  0  0  0  0  0  0  0
    1.9380   57.6180   74.0970 C   0  0  0  0  0  0  0  0  0  0  0  0
    2.0220   56.8840   72.9240 C   0  0  0  0  0  0  0  0  0  0  0  0
    2.4290   57.5120   71.7470 C   0  0  0  0  0  0  0  0  0  0  0  0
    0.2760   65.7130   70.9870 C   0  0  0  0  0  0  0  0  0  0  0  0
    1.2300   66.3490   69.9710 C   0  0  0  0  0  0  0  0  0  0  0  0
    0.5830   67.1210   68.8150 C   0  0  0  0  0  0  0  0  0  0  0  0
    1.4800   67.2230   67.5800 C   0  0  0  0  0  0  0  0  0  0  0  0
    1.1310   68.7360   66.6230 S   0  0  0  0  0  0  0  0  0  0  0  0
    2.8250   69.2270   66.2000 C   0  0  0  0  0  0  0  0  0  0  0  0
    3.6660   69.7690   67.1950 C   0  0  0  0  0  0  0  0  0  0  0  0
    3.1930   70.0430   68.6060 C   0  0  0  0  0  0  0  0  0  0  0  0
    4.1280   70.9380   69.4220 C   0  0  0  0  0  0  0  0  0  0  0  0
    5.5680   70.4780   69.2630 C   0  0  0  0  0  0  0  0  0  0  0  0
    5.9880   70.6080   67.8050 C   0  0  0  0  0  0  0  0  0  0  0  0
    4.9930   70.0180   66.8390 C   0  0  0  0  0  0  0  0  0  0  0  0
    5.4740   69.7980   65.5950 N   0  0  0  0  0  0  0  0  0  0  0  0
    4.6550   69.3530   64.6360 C   0  0  0  0  0  0  0  0  0  0  0  0
    3.3000   69.0540   64.8670 C   0  0  0  0  0  0  0  0  0  0  0  0
    2.5200   68.6080   63.7630 C   0  0  0  0  0  0  0  0  0  0  0  0
    3.0710   68.4530   62.4910 C   0  0  0  0  0  0  0  0  0  0  0  0
    4.4110   68.7380   62.2910 C   0  0  0  0  0  0  0  0  0  0  0  0
    5.1840   69.1850   63.3630 C   0  0  0  0  0  0  0  0  0  0  0  0
   -0.1038   62.3999   70.7839 H   0  0  0  0  0  0  0  0  0  0  0  0
   -0.5147   63.7648   69.6907 H   0  0  0  0  0  0  0  0  0  0  0  0
    1.1472   63.0831   69.6907 H   0  0  0  0  0  0  0  0  0  0  0  0
    1.7037   64.2908   71.4869 H   0  0  0  0  0  0  0  0  0  0  0  0
   -0.5286   64.6903   73.1332 H   0  0  0  0  0  0  0  0  0  0  0  0
   -0.3884   62.9495   72.6684 H   0  0  0  0  0  0  0  0  0  0  0  0
    2.2194   64.1077   73.3141 H   0  0  0  0  0  0  0  0  0  0  0  0
    1.0510   64.2780   74.6780 H   0  0  0  0  0  0  0  0  0  0  0  0
    1.1902   62.0719   75.1539 H   0  0  0  0  0  0  0  0  0  0  0  0
    0.8267   61.6244   73.4619 H   0  0  0  0  0  0  0  0  0  0  0  0
    3.6529   62.2421   74.4794 H   0  0  0  0  0  0  0  0  0  0  0  0
    2.8692   63.5897   71.4309 H   0  0  0  0  0  0  0  0  0  0  0  0
    4.4660   63.2424   72.2546 H   0  0  0  0  0  0  0  0  0  0  0  0
    4.5644   64.4192   69.9856 H   0  0  0  0  0  0  0  0  0  0  0  0
    5.5864   62.9517   70.2206 H   0  0  0  0  0  0  0  0  0  0  0  0
    2.8462   63.0041   68.8647 H   0  0  0  0  0  0  0  0  0  0  0  0
    4.4323   62.9459   68.0179 H   0  0  0  0  0  0  0  0  0  0  0  0
    3.2705   60.7052   68.3323 H   0  0  0  0  0  0  0  0  0  0  0  0
    4.9715   60.8357   68.9830 H   0  0  0  0  0  0  0  0  0  0  0  0
    2.1938   59.5552   75.0131 H   0  0  0  0  0  0  0  0  0  0  0  0
    1.6187   57.1348   75.0322 H   0  0  0  0  0  0  0  0  0  0  0  0
    1.7693   55.8134   72.9215 H   0  0  0  0  0  0  0  0  0  0  0  0
    2.4920   56.9205   70.8217 H   0  0  0  0  0  0  0  0  0  0  0  0
   -0.7298   65.6736   70.5435 H   0  0  0  0  0  0  0  0  0  0  0  0
    0.3067   66.3345   71.8941 H   0  0  0  0  0  0  0  0  0  0  0  0
    1.8815   67.0478   70.5163 H   0  0  0  0  0  0  0  0  0  0  0  0
    1.7569   65.5064   69.4994 H   0  0  0  0  0  0  0  0  0  0  0  0
   -0.3473   66.6080   68.5297 H   0  0  0  0  0  0  0  0  0  0  0  0
    0.3985   68.1457   69.1698 H   0  0  0  0  0  0  0  0  0  0  0  0
    2.5316   67.2387   67.9024 H   0  0  0  0  0  0  0  0  0  0  0  0
    1.2806   66.3538   66.9360 H   0  0  0  0  0  0  0  0  0  0  0  0
    2.2095   70.5325   68.5505 H   0  0  0  0  0  0  0  0  0  0  0  0
    3.1592   69.0714   69.1206 H   0  0  0  0  0  0  0  0  0  0  0  0
    4.0372   71.9758   69.0687 H   0  0  0  0  0  0  0  0  0  0  0  0
    3.8471   70.8762   70.4837 H   0  0  0  0  0  0  0  0  0  0  0  0
    6.2227   71.1015   69.8895 H   0  0  0  0  0  0  0  0  0  0  0  0
    5.6521   69.4265   69.5749 H   0  0  0  0  0  0  0  0  0  0  0  0
    6.1093   71.6760   67.5713 H   0  0  0  0  0  0  0  0  0  0  0  0
    6.9265   70.0465   67.6868 H   0  0  0  0  0  0  0  0  0  0  0  0
    1.4550   68.3796   63.9170 H   0  0  0  0  0  0  0  0  0  0  0  0
    2.4464   68.1074   61.6541 H   0  0  0  0  0  0  0  0  0  0  0  0
    4.8622   68.6131   61.2956 H   0  0  0  0  0  0  0  0  0  0  0  0
    6.2471   69.4117   63.1944 H   0  0  0  0  0  0  0  0  0  0  0  0
  2  1  1  0
  3  2  1  0
  4  3  1  0
  5  4  1  0
  6  5  1  0
  7  6  1  0
  8  7  1  0
  9  8  1  0
 10  9  1  0
 11 10  1  0
 12 11  1  0
 13 12  1  0
 13  8  2  0
 14 13  1  0
 15 14  2  0
 16 15  1  0
 16  7  2  0
 17 16  1  0
 18 17  2  0
 19 18  1  0
 20 19  2  0
 20 15  1  0
 21  2  1  0
 22 21  1  0
 23 22  1  0
 24 23  1  0
 25 24  1  0
 26 25  1  0
 27 26  1  0
 28 27  1  0
 29 28  1  0
 30 29  1  0
 31 30  1  0
 32 31  1  0
 32 27  2  0
 33 32  1  0
 34 33  2  0
 35 34  1  0
 35 26  2  0
 36 35  1  0
 37 36  2  0
 38 37  1  0
 39 34  1  0
 39 38  2  0
  1 40  1  0
  1 41  1  0
  1 42  1  0
  2 43  1  1
  3 44  1  0
  3 45  1  0
  4 46  1  0
  4 47  1  0
  5 48  1  0
  5 49  1  0
  6 50  1  0
  9 51  1  0
  9 52  1  0
 10 53  1  0
 10 54  1  0
 11 55  1  0
 11 56  1  0
 12 57  1  0
 12 58  1  0
 17 59  1  0
 18 60  1  0
 19 61  1  0
 20 62  1  0
 21 63  1  0
 21 64  1  0
 22 65  1  0
 22 66  1  0
 23 67  1  0
 23 68  1  0
 24 69  1  0
 24 70  1  0
 28 71  1  0
 28 72  1  0
 29 73  1  0
 29 74  1  0
 30 75  1  0
 30 76  1  0
 31 77  1  0
 31 78  1  0
 36 79  1  0
 37 80  1  0
 38 81  1  0
 39 82  1  0
M  CHG  1   2   1
M  END
>  <score>  (2) 
-11.982

$$$$
=
     RDKit          3D

 82 87  0  0  0  0  0  0  0  0999 V2000
    1.9940   65.3520   70.0280 C   0  0  0  0  0  0  0  0  0  0  0  0
    0.4920   65.5410   69.9690 N   0  0  2  0  0  4  0  0  0  0  0  0
    0.0960   66.7130   69.0800 C   0  0  0  0  0  0  0  0  0  0  0  0
    1.3130   67.5520   68.7120 C   0  0  0  0  0  0  0  0  0  0  0  0
    1.4090   67.7230   67.1940 C   0  0  0  0  0  0  0  0  0  0  0  0
    1.6040   69.1440   66.9040 N   0  0  0  0  0  0  0  0  0  0  0  0
    2.8860   69.3730   66.3090 C   0  0  0  0  0  0  0  0  0  0  0  0
    3.0600   69.0450   64.9500 C   0  0  0  0  0  0  0  0  0  0  0  0
    1.9060   68.5510   64.1100 C   0  0  0  0  0  0  0  0  0  0  0  0
    2.1710   68.5950   62.6050 C   0  0  0  0  0  0  0  0  0  0  0  0
    3.5470   68.0240   62.2910 C   0  0  0  0  0  0  0  0  0  0  0  0
    4.6240   68.8720   62.9600 C   0  0  0  0  0  0  0  0  0  0  0  0
    4.3410   69.1590   64.4120 C   0  0  0  0  0  0  0  0  0  0  0  0
    5.4050   69.5820   65.1330 N   0  0  0  0  0  0  0  0  0  0  0  0
    5.2390   69.9110   66.4200 C   0  0  0  0  0  0  0  0  0  0  0  0
    3.9970   69.8250   67.0790 C   0  0  0  0  0  0  0  0  0  0  0  0
    3.9360   70.1910   68.4500 C   0  0  0  0  0  0  0  0  0  0  0  0
    5.0700   70.6260   69.1380 C   0  0  0  0  0  0  0  0  0  0  0  0
    6.2820   70.7020   68.4730 C   0  0  0  0  0  0  0  0  0  0  0  0
    6.3520   70.3450   67.1260 C   0  0  0  0  0  0  0  0  0  0  0  0
   -0.0720   65.6430   71.3750 C   0  0  0  0  0  0  0  0  0  0  0  0
    0.1700   64.3890   72.2200 C   0  0  0  0  0  0  0  0  0  0  0  0
   -0.3050   63.0590   71.6230 C   0  0  0  0  0  0  0  0  0  0  0  0
   -0.7080   62.0300   72.6800 C   0  0  0  0  0  0  0  0  0  0  0  0
    0.5970   61.8120   73.9350 S   0  0  0  0  0  0  0  0  0  0  0  0
    1.5890   60.5280   73.1240 C   0  0  0  0  0  0  0  0  0  0  0  0
    2.7410   60.8890   72.3930 C   0  0  0  0  0  0  0  0  0  0  0  0
    3.1550   62.3290   72.1780 C   0  0  0  0  0  0  0  0  0  0  0  0
    4.2110   62.5240   71.0890 C   0  0  0  0  0  0  0  0  0  0  0  0
    5.3310   61.5100   71.2520 C   0  0  0  0  0  0  0  0  0  0  0  0
    4.7740   60.1030   71.0850 C   0  0  0  0  0  0  0  0  0  0  0  0
    3.5270   59.8500   71.8930 C   0  0  0  0  0  0  0  0  0  0  0  0
    3.2080   58.5460   72.0480 N   0  0  0  0  0  0  0  0  0  0  0  0
    2.0770   58.2100   72.6790 C   0  0  0  0  0  0  0  0  0  0  0  0
    1.2040   59.1600   73.2390 C   0  0  0  0  0  0  0  0  0  0  0  0
    0.0180   58.6850   73.8660 C   0  0  0  0  0  0  0  0  0  0  0  0
   -0.2750   57.3230   73.9450 C   0  0  0  0  0  0  0  0  0  0  0  0
    0.6090   56.4050   73.4010 C   0  0  0  0  0  0  0  0  0  0  0  0
    1.7700   56.8590   72.7750 C   0  0  0  0  0  0  0  0  0  0  0  0
    2.3174   65.3113   71.0786 H   0  0  0  0  0  0  0  0  0  0  0  0
    2.2654   64.4126   69.5241 H   0  0  0  0  0  0  0  0  0  0  0  0
    2.4897   66.1949   69.5241 H   0  0  0  0  0  0  0  0  0  0  0  0
    0.0726   64.7118   69.5247 H   0  0  0  0  0  0  0  0  0  0  0  0
   -0.3667   66.3267   68.1598 H   0  0  0  0  0  0  0  0  0  0  0  0
   -0.6145   67.3472   69.6305 H   0  0  0  0  0  0  0  0  0  0  0  0
    1.2254   68.5423   69.1827 H   0  0  0  0  0  0  0  0  0  0  0  0
    2.2185   67.0401   69.0697 H   0  0  0  0  0  0  0  0  0  0  0  0
    2.2607   67.1440   66.8074 H   0  0  0  0  0  0  0  0  0  0  0  0
    0.4889   67.3603   66.7124 H   0  0  0  0  0  0  0  0  0  0  0  0
    0.9118   69.8807   67.1014 H   0  0  0  0  0  0  0  0  0  0  0  0
    1.6921   67.5099   64.3936 H   0  0  0  0  0  0  0  0  0  0  0  0
    1.0585   69.2247   64.3045 H   0  0  0  0  0  0  0  0  0  0  0  0
    1.4050   68.0013   62.0847 H   0  0  0  0  0  0  0  0  0  0  0  0
    2.1333   69.6410   62.2667 H   0  0  0  0  0  0  0  0  0  0  0  0
    3.6086   66.9922   62.6673 H   0  0  0  0  0  0  0  0  0  0  0  0
    3.7033   68.0317   61.2022 H   0  0  0  0  0  0  0  0  0  0  0  0
    5.5827   68.3372   62.8903 H   0  0  0  0  0  0  0  0  0  0  0  0
    4.6494   69.8388   62.4360 H   0  0  0  0  0  0  0  0  0  0  0  0
    2.9746   70.1304   68.9810 H   0  0  0  0  0  0  0  0  0  0  0  0
    5.0013   70.9060   70.1995 H   0  0  0  0  0  0  0  0  0  0  0  0
    7.1839   71.0417   69.0032 H   0  0  0  0  0  0  0  0  0  0  0  0
    7.3199   70.4096   66.6074 H   0  0  0  0  0  0  0  0  0  0  0  0
    0.4001   66.4993   71.8788 H   0  0  0  0  0  0  0  0  0  0  0  0
   -1.1610   65.7652   71.2799 H   0  0  0  0  0  0  0  0  0  0  0  0
    1.2529   64.3085   72.3959 H   0  0  0  0  0  0  0  0  0  0  0  0
   -0.4316   64.5308   73.1299 H   0  0  0  0  0  0  0  0  0  0  0  0
   -1.1745   63.2564   70.9788 H   0  0  0  0  0  0  0  0  0  0  0  0
    0.5399   62.6344   71.0611 H   0  0  0  0  0  0  0  0  0  0  0  0
   -1.6283   62.3704   73.1772 H   0  0  0  0  0  0  0  0  0  0  0  0
   -0.8675   61.0645   72.1776 H   0  0  0  0  0  0  0  0  0  0  0  0
    2.2614   62.9064   71.8987 H   0  0  0  0  0  0  0  0  0  0  0  0
    3.6074   62.6709   73.1205 H   0  0  0  0  0  0  0  0  0  0  0  0
    3.7431   62.3922   70.1022 H   0  0  0  0  0  0  0  0  0  0  0  0
    4.6306   63.5372   71.1751 H   0  0  0  0  0  0  0  0  0  0  0  0
    6.1028   61.6912   70.4894 H   0  0  0  0  0  0  0  0  0  0  0  0
    5.7729   61.6115   72.2542 H   0  0  0  0  0  0  0  0  0  0  0  0
    4.5380   59.9459   70.0222 H   0  0  0  0  0  0  0  0  0  0  0  0
    5.5426   59.4055   71.4493 H   0  0  0  0  0  0  0  0  0  0  0  0
   -0.6861   59.4104   74.2996 H   0  0  0  0  0  0  0  0  0  0  0  0
   -1.1989   56.9813   74.4345 H   0  0  0  0  0  0  0  0  0  0  0  0
    0.3970   55.3274   73.4623 H   0  0  0  0  0  0  0  0  0  0  0  0
    2.4647   56.1233   72.3435 H   0  0  0  0  0  0  0  0  0  0  0  0
  2  1  1  0
  3  2  1  0
  4  3  1  0
  5  4  1  0
  6  5  1  0
  7  6  1  0
  8  7  1  0
  9  8  1  0
 10  9  1  0
 11 10  1  0
 12 11  1  0
 13 12  1  0
 13  8  2  0
 14 13  1  0
 15 14  2  0
 16 15  1  0
 16  7  2  0
 17 16  1  0
 18 17  2  0
 19 18  1  0
 20 19  2  0
 20 15  1  0
 21  2  1  0
 22 21  1  0
 23 22  1  0
 24 23  1  0
 25 24  1  0
 26 25  1  0
 27 26  1  0
 28 27  1  0
 29 28  1  0
 30 29  1  0
 31 30  1  0
 32 31  1  0
 32 27  2  0
 33 32  1  0
 34 33  2  0
 35 34  1  0
 35 26  2  0
 36 35  1  0
 37 36  2  0
 38 37  1  0
 39 34  1  0
 39 38  2  0
  1 40  1  0
  1 41  1  0
  1 42  1  0
  2 43  1  6
  3 44  1  0
  3 45  1  0
  4 46  1  0
  4 47  1  0
  5 48  1  0
  5 49  1  0
  6 50  1  0
  9 51  1  0
  9 52  1  0
 10 53  1  0
 10 54  1  0
 11 55  1  0
 11 56  1  0
 12 57  1  0
 12 58  1  0
 17 59  1  0
 18 60  1  0
 19 61  1  0
 20 62  1  0
 21 63  1  0
 21 64  1  0
 22 65  1  0
 22 66  1  0
 23 67  1  0
 23 68  1  0
 24 69  1  0
 24 70  1  0
 28 71  1  0
 28 72  1  0
 29 73  1  0
 29 74  1  0
 30 75  1  0
 30 76  1  0
 31 77  1  0
 31 78  1  0
 36 79  1  0
 37 80  1  0
 38 81  1  0
 39 82  1  0
M  CHG  1   2   1
M  END
>  <score>  (3) 
-11.916

$$$$
=
     RDKit          3D

 82 87  0  0  0  0  0  0  0  0999 V2000
    2.2000   64.8380   70.1660 C   0  0  0  0  0  0  0  0  0  0  0  0
    0.9410   65.6460   69.9290 N   0  0  2  0  0  4  0  0  0  0  0  0
    1.2480   67.0640   69.4680 C   0  0  0  0  0  0  0  0  0  0  0  0
    0.5500   67.3710   68.1490 C   0  0  0  0  0  0  0  0  0  0  0  0
    1.5740   67.5200   67.0210 C   0  0  0  0  0  0  0  0  0  0  0  0
    1.6340   68.9310   66.6390 N   0  0  0  0  0  0  0  0  0  0  0  0
    2.9630   69.3020   66.2590 C   0  0  0  0  0  0  0  0  0  0  0  0
    3.3640   69.0740   64.9270 C   0  0  0  0  0  0  0  0  0  0  0  0
    2.3970   68.5390   63.8980 C   0  0  0  0  0  0  0  0  0  0  0  0
    2.8760   68.6990   62.4550 C   0  0  0  0  0  0  0  0  0  0  0  0
    4.3290   68.2650   62.3270 C   0  0  0  0  0  0  0  0  0  0  0  0
    5.2140   69.1550   63.1920 C   0  0  0  0  0  0  0  0  0  0  0  0
    4.6950   69.3270   64.5970 C   0  0  0  0  0  0  0  0  0  0  0  0
    5.5980   69.7910   65.4910 N   0  0  0  0  0  0  0  0  0  0  0  0
    5.2140   70.0250   66.7520 C   0  0  0  0  0  0  0  0  0  0  0  0
    3.9020   69.7960   67.2100 C   0  0  0  0  0  0  0  0  0  0  0  0
    3.6070   70.0700   68.5720 C   0  0  0  0  0  0  0  0  0  0  0  0
    4.5820   70.5530   69.4450 C   0  0  0  0  0  0  0  0  0  0  0  0
    5.8670   70.7720   68.9760 C   0  0  0  0  0  0  0  0  0  0  0  0
    6.1670   70.5060   67.6400 C   0  0  0  0  0  0  0  0  0  0  0  0
    0.0560   65.5980   71.1620 C   0  0  0  0  0  0  0  0  0  0  0  0
    0.3010   64.3680   72.0410 C   0  0  0  0  0  0  0  0  0  0  0  0
   -0.1500   63.0180   71.4690 C   0  0  0  0  0  0  0  0  0  0  0  0
   -0.7150   62.0710   72.5290 C   0  0  0  0  0  0  0  0  0  0  0  0
    0.4480   61.8460   73.9150 S   0  0  0  0  0  0  0  0  0  0  0  0
    1.4190   60.4540   73.2760 C   0  0  0  0  0  0  0  0  0  0  0  0
    0.9590   59.1330   73.4660 C   0  0  0  0  0  0  0  0  0  0  0  0
   -0.2860   58.8070   74.2630 C   0  0  0  0  0  0  0  0  0  0  0  0
   -0.4220   57.3320   74.6430 C   0  0  0  0  0  0  0  0  0  0  0  0
   -0.1300   56.4480   73.4420 C   0  0  0  0  0  0  0  0  0  0  0  0
    1.3070   56.6600   72.9890 C   0  0  0  0  0  0  0  0  0  0  0  0
    1.6860   58.1130   72.8510 C   0  0  0  0  0  0  0  0  0  0  0  0
    2.8080   58.3390   72.1320 N   0  0  0  0  0  0  0  0  0  0  0  0
    3.2800   59.5850   72.0150 C   0  0  0  0  0  0  0  0  0  0  0  0
    2.6360   60.7020   72.5770 C   0  0  0  0  0  0  0  0  0  0  0  0
    3.2460   61.9770   72.4060 C   0  0  0  0  0  0  0  0  0  0  0  0
    4.4360   62.1310   71.6930 C   0  0  0  0  0  0  0  0  0  0  0  0
    5.0420   61.0190   71.1340 C   0  0  0  0  0  0  0  0  0  0  0  0
    4.4590   59.7620   71.3040 C   0  0  0  0  0  0  0  0  0  0  0  0
    2.3682   64.7300   71.2477 H   0  0  0  0  0  0  0  0  0  0  0  0
    2.0880   63.8427   69.7112 H   0  0  0  0  0  0  0  0  0  0  0  0
    3.0582   65.3544   69.7112 H   0  0  0  0  0  0  0  0  0  0  0  0
    0.4161   65.2187   69.1526 H   0  0  0  0  0  0  0  0  0  0  0  0
    0.9008   67.7743   70.2328 H   0  0  0  0  0  0  0  0  0  0  0  0
    2.3340   67.1578   69.3206 H   0  0  0  0  0  0  0  0  0  0  0  0
   -0.1399   66.5497   67.9051 H   0  0  0  0  0  0  0  0  0  0  0  0
   -0.0048   68.3152   68.2521 H   0  0  0  0  0  0  0  0  0  0  0  0
    2.5626   67.1866   67.3696 H   0  0  0  0  0  0  0  0  0  0  0  0
    1.2790   66.9056   66.1575 H   0  0  0  0  0  0  0  0  0  0  0  0
    0.8276   69.5717   66.6430 H   0  0  0  0  0  0  0  0  0  0  0  0
    2.2402   67.4680   64.0941 H   0  0  0  0  0  0  0  0  0  0  0  0
    1.4717   69.1261   63.9940 H   0  0  0  0  0  0  0  0  0  0  0  0
    2.2527   68.0776   61.7952 H   0  0  0  0  0  0  0  0  0  0  0  0
    2.7931   69.7573   62.1668 H   0  0  0  0  0  0  0  0  0  0  0  0
    4.4282   67.2205   62.6574 H   0  0  0  0  0  0  0  0  0  0  0  0
    4.6425   68.3539   61.2764 H   0  0  0  0  0  0  0  0  0  0  0  0
    6.2170   68.7062   63.2428 H   0  0  0  0  0  0  0  0  0  0  0  0
    5.2288   70.1513   62.7259 H   0  0  0  0  0  0  0  0  0  0  0  0
    2.5873   69.8976   68.9467 H   0  0  0  0  0  0  0  0  0  0  0  0
    4.3327   70.7582   70.4965 H   0  0  0  0  0  0  0  0  0  0  0  0
    6.6458   71.1532   69.6529 H   0  0  0  0  0  0  0  0  0  0  0  0
    7.1907   70.6828   67.2785 H   0  0  0  0  0  0  0  0  0  0  0  0
    0.2468   66.4993   71.7630 H   0  0  0  0  0  0  0  0  0  0  0  0
   -0.9853   65.5436   70.8116 H   0  0  0  0  0  0  0  0  0  0  0  0
    1.3821   64.3050   72.2340 H   0  0  0  0  0  0  0  0  0  0  0  0
   -0.3147   64.5243   72.9391 H   0  0  0  0  0  0  0  0  0  0  0  0
   -0.9285   63.2012   70.7137 H   0  0  0  0  0  0  0  0  0  0  0  0
    0.7385   62.5329   71.0386 H   0  0  0  0  0  0  0  0  0  0  0  0
   -1.6557   62.4892   72.9165 H   0  0  0  0  0  0  0  0  0  0  0  0
   -0.8851   61.0908   72.0596 H   0  0  0  0  0  0  0  0  0  0  0  0
   -0.2677   59.4009   75.1887 H   0  0  0  0  0  0  0  0  0  0  0  0
   -1.1444   59.0465   73.6181 H   0  0  0  0  0  0  0  0  0  0  0  0
    0.2904   57.0976   75.4477 H   0  0  0  0  0  0  0  0  0  0  0  0
   -1.4509   57.1440   74.9835 H   0  0  0  0  0  0  0  0  0  0  0  0
   -0.2744   55.3935   73.7200 H   0  0  0  0  0  0  0  0  0  0  0  0
   -0.8140   56.7096   72.6212 H   0  0  0  0  0  0  0  0  0  0  0  0
    1.9769   56.1940   73.7266 H   0  0  0  0  0  0  0  0  0  0  0  0
    1.4026   56.2046   71.9923 H   0  0  0  0  0  0  0  0  0  0  0  0
    2.7671   62.8636   72.8472 H   0  0  0  0  0  0  0  0  0  0  0  0
    4.8882   63.1270   71.5763 H   0  0  0  0  0  0  0  0  0  0  0  0
    5.9749   61.1249   70.5608 H   0  0  0  0  0  0  0  0  0  0  0  0
    4.9498   58.8833   70.8601 H   0  0  0  0  0  0  0  0  0  0  0  0
  2  1  1  0
  3  2  1  0
  4  3  1  0
  5  4  1  0
  6  5  1  0
  7  6  1  0
  8  7  1  0
  9  8  1  0
 10  9  1  0
 11 10  1  0
 12 11  1  0
 13 12  1  0
 13  8  2  0
 14 13  1  0
 15 14  2  0
 16 15  1  0
 16  7  2  0
 17 16  1  0
 18 17  2  0
 19 18  1  0
 20 19  2  0
 20 15  1  0
 21  2  1  0
 22 21  1  0
 23 22  1  0
 24 23  1  0
 25 24  1  0
 26 25  1  0
 27 26  1  0
 28 27  1  0
 29 28  1  0
 30 29  1  0
 31 30  1  0
 32 31  1  0
 32 27  2  0
 33 32  1  0
 34 33  2  0
 35 34  1  0
 35 26  2  0
 36 35  1  0
 37 36  2  0
 38 37  1  0
 39 34  1  0
 39 38  2  0
  1 40  1  0
  1 41  1  0
  1 42  1  0
  2 43  1  6
  3 44  1  0
  3 45  1  0
  4 46  1  0
  4 47  1  0
  5 48  1  0
  5 49  1  0
  6 50  1  0
  9 51  1  0
  9 52  1  0
 10 53  1  0
 10 54  1  0
 11 55  1  0
 11 56  1  0
 12 57  1  0
 12 58  1  0
 17 59  1  0
 18 60  1  0
 19 61  1  0
 20 62  1  0
 21 63  1  0
 21 64  1  0
 22 65  1  0
 22 66  1  0
 23 67  1  0
 23 68  1  0
 24 69  1  0
 24 70  1  0
 28 71  1  0
 28 72  1  0
 29 73  1  0
 29 74  1  0
 30 75  1  0
 30 76  1  0
 31 77  1  0
 31 78  1  0
 36 79  1  0
 37 80  1  0
 38 81  1  0
 39 82  1  0
M  CHG  1   2   1
M  END
>  <score>  (4) 
-11.842

$$$$
=
     RDKit          3D

 82 87  0  0  0  0  0  0  0  0999 V2000
    2.2910   64.6780   70.1470 C   0  0  0  0  0  0  0  0  0  0  0  0
    1.0420   65.4970   69.8960 N   0  0  2  0  0  4  0  0  0  0  0  0
    1.3660   66.9490   69.5700 C   0  0  0  0  0  0  0  0  0  0  0  0
    0.5240   67.4460   68.4020 C   0  0  0  0  0  0  0  0  0  0  0  0
    1.3670   67.5300   67.1280 C   0  0  0  0  0  0  0  0  0  0  0  0
    1.5430   68.9420   66.7860 N   0  0  0  0  0  0  0  0  0  0  0  0
    2.8660   69.1890   66.2970 C   0  0  0  0  0  0  0  0  0  0  0  0
    3.8030   69.7700   67.1750 C   0  0  0  0  0  0  0  0  0  0  0  0
    3.4590   70.0420   68.6210 C   0  0  0  0  0  0  0  0  0  0  0  0
    4.6740   70.3220   69.5040 C   0  0  0  0  0  0  0  0  0  0  0  0
    5.6130   71.3060   68.8210 C   0  0  0  0  0  0  0  0  0  0  0  0
    6.1350   70.7060   67.5210 C   0  0  0  0  0  0  0  0  0  0  0  0
    5.0500   70.1180   66.6570 C   0  0  0  0  0  0  0  0  0  0  0  0
    5.3930   69.9060   65.3660 N   0  0  0  0  0  0  0  0  0  0  0  0
    4.5100   69.3380   64.5350 C   0  0  0  0  0  0  0  0  0  0  0  0
    3.2150   68.9550   64.9370 C   0  0  0  0  0  0  0  0  0  0  0  0
    2.3570   68.3700   63.9690 C   0  0  0  0  0  0  0  0  0  0  0  0
    2.7720   68.1720   62.6510 C   0  0  0  0  0  0  0  0  0  0  0  0
    4.0490   68.5560   62.2750 C   0  0  0  0  0  0  0  0  0  0  0  0
    4.9000   69.1320   63.2180 C   0  0  0  0  0  0  0  0  0  0  0  0
    0.0820   65.3480   71.0630 C   0  0  0  0  0  0  0  0  0  0  0  0
    0.3960   64.1480   71.9610 C   0  0  0  0  0  0  0  0  0  0  0  0
   -0.2780   62.8210   71.5910 C   0  0  0  0  0  0  0  0  0  0  0  0
   -0.7350   62.0160   72.8080 C   0  0  0  0  0  0  0  0  0  0  0  0
    0.5950   61.8590   74.0460 S   0  0  0  0  0  0  0  0  0  0  0  0
    1.5070   60.4590   73.3400 C   0  0  0  0  0  0  0  0  0  0  0  0
    1.0230   59.1460   73.5200 C   0  0  0  0  0  0  0  0  0  0  0  0
   -0.1980   58.8310   74.3570 C   0  0  0  0  0  0  0  0  0  0  0  0
   -0.3550   57.3520   74.7110 C   0  0  0  0  0  0  0  0  0  0  0  0
   -0.1320   56.4880   73.4800 C   0  0  0  0  0  0  0  0  0  0  0  0
    1.2920   56.6770   72.9760 C   0  0  0  0  0  0  0  0  0  0  0  0
    1.7000   58.1230   72.8550 C   0  0  0  0  0  0  0  0  0  0  0  0
    2.7990   58.3390   72.0970 N   0  0  0  0  0  0  0  0  0  0  0  0
    3.2970   59.5760   71.9890 C   0  0  0  0  0  0  0  0  0  0  0  0
    2.7020   60.6950   72.6000 C   0  0  0  0  0  0  0  0  0  0  0  0
    3.3350   61.9590   72.4330 C   0  0  0  0  0  0  0  0  0  0  0  0
    4.5000   62.1010   71.6780 C   0  0  0  0  0  0  0  0  0  0  0  0
    5.0570   60.9880   71.0720 C   0  0  0  0  0  0  0  0  0  0  0  0
    4.4510   59.7420   71.2360 C   0  0  0  0  0  0  0  0  0  0  0  0
    2.4496   64.5740   71.2305 H   0  0  0  0  0  0  0  0  0  0  0  0
    2.1728   63.6815   69.6964 H   0  0  0  0  0  0  0  0  0  0  0  0
    3.1577   65.1837   69.6964 H   0  0  0  0  0  0  0  0  0  0  0  0
    0.5700   65.1307   69.0570 H   0  0  0  0  0  0  0  0  0  0  0  0
    1.1590   67.5710   70.4533 H   0  0  0  0  0  0  0  0  0  0  0  0
    2.4279   67.0176   69.2913 H   0  0  0  0  0  0  0  0  0  0  0  0
   -0.3120   66.7503   68.2371 H   0  0  0  0  0  0  0  0  0  0  0  0
    0.1423   68.4495   68.6416 H   0  0  0  0  0  0  0  0  0  0  0  0
    2.3484   67.0638   67.2999 H   0  0  0  0  0  0  0  0  0  0  0  0
    0.8643   67.0005   66.3052 H   0  0  0  0  0  0  0  0  0  0  0  0
    0.8129   69.6619   66.8839 H   0  0  0  0  0  0  0  0  0  0  0  0
    2.7934   70.9169   68.6601 H   0  0  0  0  0  0  0  0  0  0  0  0
    2.9825   69.1312   69.0128 H   0  0  0  0  0  0  0  0  0  0  0  0
    4.3362   70.7480   70.4603 H   0  0  0  0  0  0  0  0  0  0  0  0
    5.2123   69.3787   69.6785 H   0  0  0  0  0  0  0  0  0  0  0  0
    5.0693   72.2366   68.6010 H   0  0  0  0  0  0  0  0  0  0  0  0
    6.4612   71.5203   69.4878 H   0  0  0  0  0  0  0  0  0  0  0  0
    6.6444   71.4972   66.9513 H   0  0  0  0  0  0  0  0  0  0  0  0
    6.8159   69.8855   67.7917 H   0  0  0  0  0  0  0  0  0  0  0  0
    1.3420   68.0658   64.2643 H   0  0  0  0  0  0  0  0  0  0  0  0
    2.0913   67.7152   61.9175 H   0  0  0  0  0  0  0  0  0  0  0  0
    4.3894   68.4076   61.2396 H   0  0  0  0  0  0  0  0  0  0  0  0
    5.9120   69.4326   62.9089 H   0  0  0  0  0  0  0  0  0  0  0  0
    0.1307   66.2620   71.6731 H   0  0  0  0  0  0  0  0  0  0  0  0
   -0.9197   65.1828   70.6397 H   0  0  0  0  0  0  0  0  0  0  0  0
    1.4841   63.9882   71.9368 H   0  0  0  0  0  0  0  0  0  0  0  0
   -0.0054   64.4122   72.9505 H   0  0  0  0  0  0  0  0  0  0  0  0
   -1.1566   63.0379   70.9656 H   0  0  0  0  0  0  0  0  0  0  0  0
    0.4687   62.2129   71.0593 H   0  0  0  0  0  0  0  0  0  0  0  0
   -1.5946   62.5238   73.2698 H   0  0  0  0  0  0  0  0  0  0  0  0
   -1.0111   61.0065   72.4693 H   0  0  0  0  0  0  0  0  0  0  0  0
   -0.1305   59.4039   75.2936 H   0  0  0  0  0  0  0  0  0  0  0  0
   -1.0741   59.1039   73.7504 H   0  0  0  0  0  0  0  0  0  0  0  0
    0.3826   57.0831   75.4815 H   0  0  0  0  0  0  0  0  0  0  0  0
   -1.3739   57.1807   75.0884 H   0  0  0  0  0  0  0  0  0  0  0  0
   -0.2911   55.4312   73.7405 H   0  0  0  0  0  0  0  0  0  0  0  0
   -0.8410   56.7833   72.6925 H   0  0  0  0  0  0  0  0  0  0  0  0
    1.9783   56.1790   73.6767 H   0  0  0  0  0  0  0  0  0  0  0  0
    1.3384   56.2422   71.9667 H   0  0  0  0  0  0  0  0  0  0  0  0
    2.8947   62.8464   72.9112 H   0  0  0  0  0  0  0  0  0  0  0  0
    4.9714   63.0885   71.5654 H   0  0  0  0  0  0  0  0  0  0  0  0
    5.9699   61.0851   70.4661 H   0  0  0  0  0  0  0  0  0  0  0  0
    4.9024   58.8629   70.7529 H   0  0  0  0  0  0  0  0  0  0  0  0
  2  1  1  0
  3  2  1  0
  4  3  1  0
  5  4  1  0
  6  5  1  0
  7  6  1  0
  8  7  1  0
  9  8  1  0
 10  9  1  0
 11 10  1  0
 12 11  1  0
 13 12  1  0
 13  8  2  0
 14 13  1  0
 15 14  2  0
 16 15  1  0
 16  7  2  0
 17 16  1  0
 18 17  2  0
 19 18  1  0
 20 19  2  0
 20 15  1  0
 21  2  1  0
 22 21  1  0
 23 22  1  0
 24 23  1  0
 25 24  1  0
 26 25  1  0
 27 26  1  0
 28 27  1  0
 29 28  1  0
 30 29  1  0
 31 30  1  0
 32 31  1  0
 32 27  2  0
 33 32  1  0
 34 33  2  0
 35 34  1  0
 35 26  2  0
 36 35  1  0
 37 36  2  0
 38 37  1  0
 39 34  1  0
 39 38  2  0
  1 40  1  0
  1 41  1  0
  1 42  1  0
  2 43  1  6
  3 44  1  0
  3 45  1  0
  4 46  1  0
  4 47  1  0
  5 48  1  0
  5 49  1  0
  6 50  1  0
  9 51  1  0
  9 52  1  0
 10 53  1  0
 10 54  1  0
 11 55  1  0
 11 56  1  0
 12 57  1  0
 12 58  1  0
 17 59  1  0
 18 60  1  0
 19 61  1  0
 20 62  1  0
 21 63  1  0
 21 64  1  0
 22 65  1  0
 22 66  1  0
 23 67  1  0
 23 68  1  0
 24 69  1  0
 24 70  1  0
 28 71  1  0
 28 72  1  0
 29 73  1  0
 29 74  1  0
 30 75  1  0
 30 76  1  0
 31 77  1  0
 31 78  1  0
 36 79  1  0
 37 80  1  0
 38 81  1  0
 39 82  1  0
M  CHG  1   2   1
M  END
>  <score>  (5) 
-11.619

$$$$
=
     RDKit          3D

 82 87  0  0  0  0  0  0  0  0999 V2000
    5.2670   63.4130   63.7110 C   0  0  0  0  0  0  0  0  0  0  0  0
    4.1090   64.3880   63.6470 N   0  0  2  0  0  4  0  0  0  0  0  0
    4.5270   65.7370   63.0770 C   0  0  0  0  0  0  0  0  0  0  0  0
    3.8020   66.8750   63.7850 C   0  0  0  0  0  0  0  0  0  0  0  0
    4.7950   67.9470   64.2350 C   0  0  0  0  0  0  0  0  0  0  0  0
    4.0620   69.1960   64.4410 N   0  0  0  0  0  0  0  0  0  0  0  0
    3.6940   69.3530   65.8160 C   0  0  0  0  0  0  0  0  0  0  0  0
    2.3610   69.0810   66.1850 C   0  0  0  0  0  0  0  0  0  0  0  0
    1.3640   68.5490   65.1830 C   0  0  0  0  0  0  0  0  0  0  0  0
    0.0980   67.9700   65.8160 C   0  0  0  0  0  0  0  0  0  0  0  0
   -0.4350   68.9080   66.8900 C   0  0  0  0  0  0  0  0  0  0  0  0
    0.5940   69.0570   68.0050 C   0  0  0  0  0  0  0  0  0  0  0  0
    1.9830   69.3510   67.4990 C   0  0  0  0  0  0  0  0  0  0  0  0
    2.8400   69.8420   68.4240 N   0  0  0  0  0  0  0  0  0  0  0  0
    4.1100   70.0850   68.0800 C   0  0  0  0  0  0  0  0  0  0  0  0
    4.6090   69.8650   66.7800 C   0  0  0  0  0  0  0  0  0  0  0  0
    5.9720   70.1660   66.5230 C   0  0  0  0  0  0  0  0  0  0  0  0
    6.8080   70.6660   67.5220 C   0  0  0  0  0  0  0  0  0  0  0  0
    6.3000   70.8760   68.7940 C   0  0  0  0  0  0  0  0  0  0  0  0
    4.9620   70.5840   69.0570 C   0  0  0  0  0  0  0  0  0  0  0  0
    3.4470   64.4950   65.0090 C   0  0  0  0  0  0  0  0  0  0  0  0
    3.7950   63.3360   65.9480 C   0  0  0  0  0  0  0  0  0  0  0  0
    3.7220   63.6280   67.4520 C   0  0  0  0  0  0  0  0  0  0  0  0
    3.8120   62.3700   68.3170 C   0  0  0  0  0  0  0  0  0  0  0  0
    4.3390   62.7620   70.0180 S   0  0  0  0  0  0  0  0  0  0  0  0
    2.7350   62.6830   70.8610 C   0  0  0  0  0  0  0  0  0  0  0  0
    2.3420   61.4920   71.5090 C   0  0  0  0  0  0  0  0  0  0  0  0
    3.1700   60.2260   71.4660 C   0  0  0  0  0  0  0  0  0  0  0  0
    2.4250   58.9710   71.9220 C   0  0  0  0  0  0  0  0  0  0  0  0
    1.6660   59.2460   73.2100 C   0  0  0  0  0  0  0  0  0  0  0  0
    0.6170   60.3220   72.9640 C   0  0  0  0  0  0  0  0  0  0  0  0
    1.1530   61.5290   72.2390 C   0  0  0  0  0  0  0  0  0  0  0  0
    0.3680   62.6270   72.3110 N   0  0  0  0  0  0  0  0  0  0  0  0
    0.7070   63.7300   71.6360 C   0  0  0  0  0  0  0  0  0  0  0  0
    1.8850   63.8270   70.8720 C   0  0  0  0  0  0  0  0  0  0  0  0
    2.1290   65.0460   70.1780 C   0  0  0  0  0  0  0  0  0  0  0  0
    1.2470   66.1240   70.2560 C   0  0  0  0  0  0  0  0  0  0  0  0
    0.1030   66.0110   71.0280 C   0  0  0  0  0  0  0  0  0  0  0  0
   -0.1530   64.8180   71.7050 C   0  0  0  0  0  0  0  0  0  0  0  0
    5.5137   63.2053   64.7627 H   0  0  0  0  0  0  0  0  0  0  0  0
    4.9855   62.4759   63.2084 H   0  0  0  0  0  0  0  0  0  0  0  0
    6.1425   63.8500   63.2084 H   0  0  0  0  0  0  0  0  0  0  0  0
    3.4063   64.0233   62.9881 H   0  0  0  0  0  0  0  0  0  0  0  0
    5.6116   65.8634   63.2095 H   0  0  0  0  0  0  0  0  0  0  0  0
    4.2645   65.7637   62.0091 H   0  0  0  0  0  0  0  0  0  0  0  0
    3.0729   67.3243   63.0947 H   0  0  0  0  0  0  0  0  0  0  0  0
    3.2887   66.4723   64.6707 H   0  0  0  0  0  0  0  0  0  0  0  0
    5.2748   67.6381   65.1754 H   0  0  0  0  0  0  0  0  0  0  0  0
    5.5736   68.0866   63.4706 H   0  0  0  0  0  0  0  0  0  0  0  0
    3.8402   69.8723   63.6965 H   0  0  0  0  0  0  0  0  0  0  0  0
    1.0716   69.3724   64.5147 H   0  0  0  0  0  0  0  0  0  0  0  0
    1.8584   67.7254   64.6471 H   0  0  0  0  0  0  0  0  0  0  0  0
   -0.6682   67.8373   65.0379 H   0  0  0  0  0  0  0  0  0  0  0  0
    0.3405   67.0011   66.2768 H   0  0  0  0  0  0  0  0  0  0  0  0
   -0.6371   69.8939   66.4459 H   0  0  0  0  0  0  0  0  0  0  0  0
   -1.3636   68.4911   67.3071 H   0  0  0  0  0  0  0  0  0  0  0  0
    0.2800   69.8814   68.6620 H   0  0  0  0  0  0  0  0  0  0  0  0
    0.6381   68.0959   68.5382 H   0  0  0  0  0  0  0  0  0  0  0  0
    6.3782   70.0015   65.5141 H   0  0  0  0  0  0  0  0  0  0  0  0
    7.8618   70.8916   67.3016 H   0  0  0  0  0  0  0  0  0  0  0  0
    6.9477   71.2703   69.5908 H   0  0  0  0  0  0  0  0  0  0  0  0
    4.5689   70.7542   70.0702 H   0  0  0  0  0  0  0  0  0  0  0  0
    3.7700   65.4348   65.4807 H   0  0  0  0  0  0  0  0  0  0  0  0
    2.3598   64.4641   64.8446 H   0  0  0  0  0  0  0  0  0  0  0  0
    3.0991   62.5116   65.7335 H   0  0  0  0  0  0  0  0  0  0  0  0
    4.8517   63.1059   65.7471 H   0  0  0  0  0  0  0  0  0  0  0  0
    4.5544   64.2957   67.7189 H   0  0  0  0  0  0  0  0  0  0  0  0
    2.7424   64.0887   67.6475 H   0  0  0  0  0  0  0  0  0  0  0  0
    2.8234   61.8889   68.3514 H   0  0  0  0  0  0  0  0  0  0  0  0
    4.5602   61.6983   67.8709 H   0  0  0  0  0  0  0  0  0  0  0  0
    3.5067   60.0696   70.4305 H   0  0  0  0  0  0  0  0  0  0  0  0
    4.0033   60.3706   72.1693 H   0  0  0  0  0  0  0  0  0  0  0  0
    1.7139   58.6669   71.1398 H   0  0  0  0  0  0  0  0  0  0  0  0
    3.1545   58.1675   72.1015 H   0  0  0  0  0  0  0  0  0  0  0  0
    1.1718   58.3232   73.5480 H   0  0  0  0  0  0  0  0  0  0  0  0
    2.3693   59.5908   73.9824 H   0  0  0  0  0  0  0  0  0  0  0  0
   -0.1943   59.8863   72.3624 H   0  0  0  0  0  0  0  0  0  0  0  0
    0.2679   60.6648   73.9492 H   0  0  0  0  0  0  0  0  0  0  0  0
    3.0369   65.1403   69.5641 H   0  0  0  0  0  0  0  0  0  0  0  0
    1.4583   67.0549   69.7094 H   0  0  0  0  0  0  0  0  0  0  0  0
   -0.5982   66.8548   71.1069 H   0  0  0  0  0  0  0  0  0  0  0  0
   -1.0659   64.7368   72.3132 H   0  0  0  0  0  0  0  0  0  0  0  0
  2  1  1  0
  3  2  1  0
  4  3  1  0
  5  4  1  0
  6  5  1  0
  7  6  1  0
  8  7  1  0
  9  8  1  0
 10  9  1  0
 11 10  1  0
 12 11  1  0
 13 12  1  0
 13  8  2  0
 14 13  1  0
 15 14  2  0
 16 15  1  0
 16  7  2  0
 17 16  1  0
 18 17  2  0
 19 18  1  0
 20 19  2  0
 20 15  1  0
 21  2  1  0
 22 21  1  0
 23 22  1  0
 24 23  1  0
 25 24  1  0
 26 25  1  0
 27 26  1  0
 28 27  1  0
 29 28  1  0
 30 29  1  0
 31 30  1  0
 32 31  1  0
 32 27  2  0
 33 32  1  0
 34 33  2  0
 35 34  1  0
 35 26  2  0
 36 35  1  0
 37 36  2  0
 38 37  1  0
 39 34  1  0
 39 38  2  0
  1 40  1  0
  1 41  1  0
  1 42  1  0
  2 43  1  6
  3 44  1  0
  3 45  1  0
  4 46  1  0
  4 47  1  0
  5 48  1  0
  5 49  1  0
  6 50  1  0
  9 51  1  0
  9 52  1  0
 10 53  1  0
 10 54  1  0
 11 55  1  0
 11 56  1  0
 12 57  1  0
 12 58  1  0
 17 59  1  0
 18 60  1  0
 19 61  1  0
 20 62  1  0
 21 63  1  0
 21 64  1  0
 22 65  1  0
 22 66  1  0
 23 67  1  0
 23 68  1  0
 24 69  1  0
 24 70  1  0
 28 71  1  0
 28 72  1  0
 29 73  1  0
 29 74  1  0
 30 75  1  0
 30 76  1  0
 31 77  1  0
 31 78  1  0
 36 79  1  0
 37 80  1  0
 38 81  1  0
 39 82  1  0
M  CHG  1   2   1
M  END
>  <score>  (6) 
-11.448

$$$$
=
     RDKit          3D

 82 87  0  0  0  0  0  0  0  0999 V2000
    2.2810   64.6930   69.9910 C   0  0  0  0  0  0  0  0  0  0  0  0
    1.0720   65.5920   69.8290 N   0  0  2  0  0  4  0  0  0  0  0  0
    1.4650   67.0370   69.5540 C   0  0  0  0  0  0  0  0  0  0  0  0
    0.6560   67.6100   68.3970 C   0  0  0  0  0  0  0  0  0  0  0  0
    1.5070   67.6740   67.1270 C   0  0  0  0  0  0  0  0  0  0  0  0
    1.7450   69.0820   66.8050 N   0  0  0  0  0  0  0  0  0  0  0  0
    3.0720   69.2740   66.3020 C   0  0  0  0  0  0  0  0  0  0  0  0
    4.0380   69.8290   67.1660 C   0  0  0  0  0  0  0  0  0  0  0  0
    3.7170   70.1290   68.6110 C   0  0  0  0  0  0  0  0  0  0  0  0
    4.9500   70.3720   69.4810 C   0  0  0  0  0  0  0  0  0  0  0  0
    5.9190   71.3130   68.7790 C   0  0  0  0  0  0  0  0  0  0  0  0
    6.4070   70.6800   67.4820 C   0  0  0  0  0  0  0  0  0  0  0  0
    5.2920   70.1240   66.6330 C   0  0  0  0  0  0  0  0  0  0  0  0
    5.6160   69.8850   65.3410 N   0  0  0  0  0  0  0  0  0  0  0  0
    4.7050   69.3420   64.5240 C   0  0  0  0  0  0  0  0  0  0  0  0
    3.4010   69.0120   64.9410 C   0  0  0  0  0  0  0  0  0  0  0  0
    2.5120   68.4490   63.9870 C   0  0  0  0  0  0  0  0  0  0  0  0
    2.9080   68.2220   62.6690 C   0  0  0  0  0  0  0  0  0  0  0  0
    4.1950   68.5530   62.2780 C   0  0  0  0  0  0  0  0  0  0  0  0
    5.0760   69.1070   63.2070 C   0  0  0  0  0  0  0  0  0  0  0  0
    0.1510   65.4410   71.0280 C   0  0  0  0  0  0  0  0  0  0  0  0
    0.0990   64.0140   71.5810 C   0  0  0  0  0  0  0  0  0  0  0  0
    0.3970   63.8480   73.0760 C   0  0  0  0  0  0  0  0  0  0  0  0
   -0.0940   62.5160   73.6460 C   0  0  0  0  0  0  0  0  0  0  0  0
    1.1560   61.7510   74.7310 S   0  0  0  0  0  0  0  0  0  0  0  0
    1.7380   60.4250   73.6390 C   0  0  0  0  0  0  0  0  0  0  0  0
    2.8270   60.6570   72.7730 C   0  0  0  0  0  0  0  0  0  0  0  0
    3.4980   62.0080   72.6470 C   0  0  0  0  0  0  0  0  0  0  0  0
    4.4110   62.1470   71.4280 C   0  0  0  0  0  0  0  0  0  0  0  0
    5.3070   60.9260   71.2980 C   0  0  0  0  0  0  0  0  0  0  0  0
    4.4530   59.6860   71.0760 C   0  0  0  0  0  0  0  0  0  0  0  0
    3.3040   59.5670   72.0440 C   0  0  0  0  0  0  0  0  0  0  0  0
    2.7450   58.3370   72.1100 N   0  0  0  0  0  0  0  0  0  0  0  0
    1.6670   58.1390   72.8760 C   0  0  0  0  0  0  0  0  0  0  0  0
    1.0960   59.1520   73.6680 C   0  0  0  0  0  0  0  0  0  0  0  0
   -0.0650   58.8280   74.4260 C   0  0  0  0  0  0  0  0  0  0  0  0
   -0.6200   57.5480   74.4060 C   0  0  0  0  0  0  0  0  0  0  0  0
   -0.0300   56.5630   73.6320 C   0  0  0  0  0  0  0  0  0  0  0  0
    1.1020   56.8700   72.8770 C   0  0  0  0  0  0  0  0  0  0  0  0
    2.4846   64.5416   71.0613 H   0  0  0  0  0  0  0  0  0  0  0  0
    2.0821   63.7217   69.5146 H   0  0  0  0  0  0  0  0  0  0  0  0
    3.1540   65.1631   69.5146 H   0  0  0  0  0  0  0  0  0  0  0  0
    0.5474   65.2929   68.9946 H   0  0  0  0  0  0  0  0  0  0  0  0
    1.2793   67.6386   70.4560 H   0  0  0  0  0  0  0  0  0  0  0  0
    2.5313   67.0661   69.2855 H   0  0  0  0  0  0  0  0  0  0  0  0
   -0.2188   66.9686   68.2145 H   0  0  0  0  0  0  0  0  0  0  0  0
    0.3321   68.6279   68.6595 H   0  0  0  0  0  0  0  0  0  0  0  0
    2.4666   67.1635   67.2959 H   0  0  0  0  0  0  0  0  0  0  0  0
    0.9856   67.1774   66.2954 H   0  0  0  0  0  0  0  0  0  0  0  0
    1.0511   69.8338   66.9242 H   0  0  0  0  0  0  0  0  0  0  0  0
    3.0854   71.0289   68.6460 H   0  0  0  0  0  0  0  0  0  0  0  0
    3.2095   69.2413   69.0166 H   0  0  0  0  0  0  0  0  0  0  0  0
    4.6372   70.8202   70.4356 H   0  0  0  0  0  0  0  0  0  0  0  0
    5.4540   69.4110   69.6612 H   0  0  0  0  0  0  0  0  0  0  0  0
    5.4083   72.2607   68.5530 H   0  0  0  0  0  0  0  0  0  0  0  0
    6.7803   71.5030   69.4363 H   0  0  0  0  0  0  0  0  0  0  0  0
    6.9411   71.4451   66.8995 H   0  0  0  0  0  0  0  0  0  0  0  0
    7.0589   69.8374   67.7560 H   0  0  0  0  0  0  0  0  0  0  0  0
    1.4890   68.1863   64.2943 H   0  0  0  0  0  0  0  0  0  0  0  0
    2.2042   67.7838   61.9461 H   0  0  0  0  0  0  0  0  0  0  0  0
    4.5203   68.3801   61.2415 H   0  0  0  0  0  0  0  0  0  0  0  0
    6.0959   69.3656   62.8862 H   0  0  0  0  0  0  0  0  0  0  0  0
    0.5046   66.1110   71.8255 H   0  0  0  0  0  0  0  0  0  0  0  0
   -0.8647   65.6949   70.6904 H   0  0  0  0  0  0  0  0  0  0  0  0
   -0.9114   63.6206   71.3960 H   0  0  0  0  0  0  0  0  0  0  0  0
    0.9029   63.4713   71.0620 H   0  0  0  0  0  0  0  0  0  0  0  0
    1.4851   63.9115   73.2244 H   0  0  0  0  0  0  0  0  0  0  0  0
   -0.1407   64.6477   73.6064 H   0  0  0  0  0  0  0  0  0  0  0  0
   -1.0114   62.6924   74.2268 H   0  0  0  0  0  0  0  0  0  0  0  0
   -0.2870   61.8319   72.8065 H   0  0  0  0  0  0  0  0  0  0  0  0
    2.7142   62.7768   72.5796 H   0  0  0  0  0  0  0  0  0  0  0  0
    4.1376   62.1255   73.5342 H   0  0  0  0  0  0  0  0  0  0  0  0
    3.7946   62.2429   70.5220 H   0  0  0  0  0  0  0  0  0  0  0  0
    5.0400   63.0408   71.5521 H   0  0  0  0  0  0  0  0  0  0  0  0
    5.9865   61.0601   70.4434 H   0  0  0  0  0  0  0  0  0  0  0  0
    5.8940   60.8044   72.2203 H   0  0  0  0  0  0  0  0  0  0  0  0
    4.0458   59.7218   70.0548 H   0  0  0  0  0  0  0  0  0  0  0  0
    5.1025   58.8127   71.2354 H   0  0  0  0  0  0  0  0  0  0  0  0
   -0.5365   59.6069   75.0433 H   0  0  0  0  0  0  0  0  0  0  0  0
   -1.5183   57.3234   74.9998 H   0  0  0  0  0  0  0  0  0  0  0  0
   -0.4506   55.5468   73.6127 H   0  0  0  0  0  0  0  0  0  0  0  0
    1.5620   56.0819   72.2627 H   0  0  0  0  0  0  0  0  0  0  0  0
  2  1  1  0
  3  2  1  0
  4  3  1  0
  5  4  1  0
  6  5  1  0
  7  6  1  0
  8  7  1  0
  9  8  1  0
 10  9  1  0
 11 10  1  0
 12 11  1  0
 13 12  1  0
 13  8  2  0
 14 13  1  0
 15 14  2  0
 16 15  1  0
 16  7  2  0
 17 16  1  0
 18 17  2  0
 19 18  1  0
 20 19  2  0
 20 15  1  0
 21  2  1  0
 22 21  1  0
 23 22  1  0
 24 23  1  0
 25 24  1  0
 26 25  1  0
 27 26  1  0
 28 27  1  0
 29 28  1  0
 30 29  1  0
 31 30  1  0
 32 31  1  0
 32 27  2  0
 33 32  1  0
 34 33  2  0
 35 34  1  0
 35 26  2  0
 36 35  1  0
 37 36  2  0
 38 37  1  0
 39 34  1  0
 39 38  2  0
  1 40  1  0
  1 41  1  0
  1 42  1  0
  2 43  1  6
  3 44  1  0
  3 45  1  0
  4 46  1  0
  4 47  1  0
  5 48  1  0
  5 49  1  0
  6 50  1  0
  9 51  1  0
  9 52  1  0
 10 53  1  0
 10 54  1  0
 11 55  1  0
 11 56  1  0
 12 57  1  0
 12 58  1  0
 17 59  1  0
 18 60  1  0
 19 61  1  0
 20 62  1  0
 21 63  1  0
 21 64  1  0
 22 65  1  0
 22 66  1  0
 23 67  1  0
 23 68  1  0
 24 69  1  0
 24 70  1  0
 28 71  1  0
 28 72  1  0
 29 73  1  0
 29 74  1  0
 30 75  1  0
 30 76  1  0
 31 77  1  0
 31 78  1  0
 36 79  1  0
 37 80  1  0
 38 81  1  0
 39 82  1  0
M  CHG  1   2   1
M  END
>  <score>  (7) 
-11.414

$$$$
=
     RDKit          3D

 82 87  0  0  0  0  0  0  0  0999 V2000
    2.4860   64.2070   70.5460 C   0  0  0  0  0  0  0  0  0  0  0  0
    1.1510   64.3230   71.2540 N   0  0  2  0  0  4  0  0  0  0  0  0
    0.4270   62.9860   71.3350 C   0  0  0  0  0  0  0  0  0  0  0  0
   -0.2100   62.7940   72.7060 C   0  0  0  0  0  0  0  0  0  0  0  0
   -0.6110   61.3330   72.9120 C   0  0  0  0  0  0  0  0  0  0  0  0
    0.3560   60.7140   73.8190 N   0  0  0  0  0  0  0  0  0  0  0  0
    0.8380   59.4760   73.2870 C   0  0  0  0  0  0  0  0  0  0  0  0
    0.3220   58.2760   73.8160 C   0  0  0  0  0  0  0  0  0  0  0  0
   -0.7780   58.2850   74.8510 C   0  0  0  0  0  0  0  0  0  0  0  0
   -1.4630   56.9320   75.0390 C   0  0  0  0  0  0  0  0  0  0  0  0
   -0.4270   55.8210   75.1420 C   0  0  0  0  0  0  0  0  0  0  0  0
    0.3750   55.7400   73.8490 C   0  0  0  0  0  0  0  0  0  0  0  0
    0.8830   57.0780   73.3760 C   0  0  0  0  0  0  0  0  0  0  0  0
    1.8790   57.0250   72.4620 N   0  0  0  0  0  0  0  0  0  0  0  0
    2.3590   58.1630   71.9460 C   0  0  0  0  0  0  0  0  0  0  0  0
    1.8830   59.4350   72.3190 C   0  0  0  0  0  0  0  0  0  0  0  0
    2.4720   60.5770   71.7140 C   0  0  0  0  0  0  0  0  0  0  0  0
    3.4940   60.4570   70.7730 C   0  0  0  0  0  0  0  0  0  0  0  0
    3.9490   59.1970   70.4190 C   0  0  0  0  0  0  0  0  0  0  0  0
    3.3780   58.0690   71.0070 C   0  0  0  0  0  0  0  0  0  0  0  0
    0.3160   65.4150   70.6080 C   0  0  0  0  0  0  0  0  0  0  0  0
    1.1540   66.4810   69.8950 C   0  0  0  0  0  0  0  0  0  0  0  0
    0.4770   67.2210   68.7360 C   0  0  0  0  0  0  0  0  0  0  0  0
    1.4320   67.5450   67.5850 C   0  0  0  0  0  0  0  0  0  0  0  0
    1.4800   69.3350   67.2390 S   0  0  0  0  0  0  0  0  0  0  0  0
    3.1690   69.4750   66.5930 C   0  0  0  0  0  0  0  0  0  0  0  0
    3.4350   69.1440   65.2470 C   0  0  0  0  0  0  0  0  0  0  0  0
    2.3780   68.5890   64.3180 C   0  0  0  0  0  0  0  0  0  0  0  0
    2.9300   67.9760   63.0300 C   0  0  0  0  0  0  0  0  0  0  0  0
    3.9670   68.8980   62.4100 C   0  0  0  0  0  0  0  0  0  0  0  0
    5.1420   69.0610   63.3650 C   0  0  0  0  0  0  0  0  0  0  0  0
    4.7270   69.3840   64.7770 C   0  0  0  0  0  0  0  0  0  0  0  0
    5.7150   69.8740   65.5590 N   0  0  0  0  0  0  0  0  0  0  0  0
    5.4780   70.1170   66.8520 C   0  0  0  0  0  0  0  0  0  0  0  0
    4.2170   69.9280   67.4470 C   0  0  0  0  0  0  0  0  0  0  0  0
    4.0910   70.2000   68.8390 C   0  0  0  0  0  0  0  0  0  0  0  0
    5.1700   70.6550   69.5980 C   0  0  0  0  0  0  0  0  0  0  0  0
    6.3970   70.8500   68.9870 C   0  0  0  0  0  0  0  0  0  0  0  0
    6.5360   70.5780   67.6250 C   0  0  0  0  0  0  0  0  0  0  0  0
    3.2916   64.1370   71.2917 H   0  0  0  0  0  0  0  0  0  0  0  0
    2.4899   63.3051   69.9162 H   0  0  0  0  0  0  0  0  0  0  0  0
    2.6454   65.0947   69.9162 H   0  0  0  0  0  0  0  0  0  0  0  0
    1.3193   64.5977   72.2323 H   0  0  0  0  0  0  0  0  0  0  0  0
   -0.3584   62.9547   70.5655 H   0  0  0  0  0  0  0  0  0  0  0  0
    1.1579   62.1804   71.1714 H   0  0  0  0  0  0  0  0  0  0  0  0
    0.5115   63.0842   73.4839 H   0  0  0  0  0  0  0  0  0  0  0  0
   -1.1109   63.4219   72.7701 H   0  0  0  0  0  0  0  0  0  0  0  0
   -1.6182   61.2823   73.3513 H   0  0  0  0  0  0  0  0  0  0  0  0
   -0.6192   60.8030   71.9481 H   0  0  0  0  0  0  0  0  0  0  0  0
    0.6506   61.1158   74.7205 H   0  0  0  0  0  0  0  0  0  0  0  0
   -0.3442   58.5904   75.8146 H   0  0  0  0  0  0  0  0  0  0  0  0
   -1.5472   58.9851   74.4930 H   0  0  0  0  0  0  0  0  0  0  0  0
   -2.0628   56.9546   75.9608 H   0  0  0  0  0  0  0  0  0  0  0  0
   -2.1100   56.7365   74.1711 H   0  0  0  0  0  0  0  0  0  0  0  0
    0.2528   56.0325   75.9805 H   0  0  0  0  0  0  0  0  0  0  0  0
   -0.9389   54.8623   75.3119 H   0  0  0  0  0  0  0  0  0  0  0  0
    1.2377   55.0779   74.0145 H   0  0  0  0  0  0  0  0  0  0  0  0
   -0.3006   55.3551   73.0709 H   0  0  0  0  0  0  0  0  0  0  0  0
    2.1139   61.5787   71.9940 H   0  0  0  0  0  0  0  0  0  0  0  0
    3.9352   61.3549   70.3156 H   0  0  0  0  0  0  0  0  0  0  0  0
    4.7554   59.0873   69.6789 H   0  0  0  0  0  0  0  0  0  0  0  0
    3.7461   57.0735   70.7181 H   0  0  0  0  0  0  0  0  0  0  0  0
   -0.3564   64.9502   69.8719 H   0  0  0  0  0  0  0  0  0  0  0  0
   -0.2356   65.9213   71.4139 H   0  0  0  0  0  0  0  0  0  0  0  0
    1.4481   67.2310   70.6440 H   0  0  0  0  0  0  0  0  0  0  0  0
    1.9940   65.9351   69.4407 H   0  0  0  0  0  0  0  0  0  0  0  0
   -0.3370   66.5913   68.3476 H   0  0  0  0  0  0  0  0  0  0  0  0
    0.1073   68.1783   69.1321 H   0  0  0  0  0  0  0  0  0  0  0  0
    2.4433   67.2057   67.8536 H   0  0  0  0  0  0  0  0  0  0  0  0
    1.0722   67.0289   66.6827 H   0  0  0  0  0  0  0  0  0  0  0  0
    1.8194   67.8104   64.8581 H   0  0  0  0  0  0  0  0  0  0  0  0
    1.7465   69.4379   64.0170 H   0  0  0  0  0  0  0  0  0  0  0  0
    3.3971   67.0071   63.2603 H   0  0  0  0  0  0  0  0  0  0  0  0
    2.1038   67.8358   62.3174 H   0  0  0  0  0  0  0  0  0  0  0  0
    4.3222   68.4652   61.4631 H   0  0  0  0  0  0  0  0  0  0  0  0
    3.5132   69.8815   62.2181 H   0  0  0  0  0  0  0  0  0  0  0  0
    5.7146   68.1219   63.3763 H   0  0  0  0  0  0  0  0  0  0  0  0
    5.7402   69.9093   63.0010 H   0  0  0  0  0  0  0  0  0  0  0  0
    3.1179   70.0475   69.3287 H   0  0  0  0  0  0  0  0  0  0  0  0
    5.0468   70.8570   70.6723 H   0  0  0  0  0  0  0  0  0  0  0  0
    7.2550   71.2162   69.5699 H   0  0  0  0  0  0  0  0  0  0  0  0
    7.5151   70.7338   67.1484 H   0  0  0  0  0  0  0  0  0  0  0  0
  2  1  1  0
  3  2  1  0
  4  3  1  0
  5  4  1  0
  6  5  1  0
  7  6  1  0
  8  7  1  0
  9  8  1  0
 10  9  1  0
 11 10  1  0
 12 11  1  0
 13 12  1  0
 13  8  2  0
 14 13  1  0
 15 14  2  0
 16 15  1  0
 16  7  2  0
 17 16  1  0
 18 17  2  0
 19 18  1  0
 20 19  2  0
 20 15  1  0
 21  2  1  0
 22 21  1  0
 23 22  1  0
 24 23  1  0
 25 24  1  0
 26 25  1  0
 27 26  1  0
 28 27  1  0
 29 28  1  0
 30 29  1  0
 31 30  1  0
 32 31  1  0
 32 27  2  0
 33 32  1  0
 34 33  2  0
 35 34  1  0
 35 26  2  0
 36 35  1  0
 37 36  2  0
 38 37  1  0
 39 34  1  0
 39 38  2  0
  1 40  1  0
  1 41  1  0
  1 42  1  0
  2 43  1  1
  3 44  1  0
  3 45  1  0
  4 46  1  0
  4 47  1  0
  5 48  1  0
  5 49  1  0
  6 50  1  0
  9 51  1  0
  9 52  1  0
 10 53  1  0
 10 54  1  0
 11 55  1  0
 11 56  1  0
 12 57  1  0
 12 58  1  0
 17 59  1  0
 18 60  1  0
 19 61  1  0
 20 62  1  0
 21 63  1  0
 21 64  1  0
 22 65  1  0
 22 66  1  0
 23 67  1  0
 23 68  1  0
 24 69  1  0
 24 70  1  0
 28 71  1  0
 28 72  1  0
 29 73  1  0
 29 74  1  0
 30 75  1  0
 30 76  1  0
 31 77  1  0
 31 78  1  0
 36 79  1  0
 37 80  1  0
 38 81  1  0
 39 82  1  0
M  CHG  1   2   1
M  END
>  <score>  (8) 
-11.339

$$$$
=
     RDKit          3D

 82 87  0  0  0  0  0  0  0  0999 V2000
    2.2910   63.9250   70.6830 C   0  0  0  0  0  0  0  0  0  0  0  0
    0.9630   64.2630   71.3290 N   0  0  2  0  0  4  0  0  0  0  0  0
    0.1200   63.0220   71.5920 C   0  0  0  0  0  0  0  0  0  0  0  0
   -0.1210   62.8340   73.0840 C   0  0  0  0  0  0  0  0  0  0  0  0
   -0.4450   61.3720   73.3960 C   0  0  0  0  0  0  0  0  0  0  0  0
    0.6810   60.7980   74.1330 N   0  0  0  0  0  0  0  0  0  0  0  0
    1.0270   59.5090   73.6180 C   0  0  0  0  0  0  0  0  0  0  0  0
    2.0450   59.4300   72.6460 C   0  0  0  0  0  0  0  0  0  0  0  0
    2.8190   60.6550   72.2210 C   0  0  0  0  0  0  0  0  0  0  0  0
    4.1030   60.3410   71.4540 C   0  0  0  0  0  0  0  0  0  0  0  0
    3.8410   59.2860   70.3880 C   0  0  0  0  0  0  0  0  0  0  0  0
    3.3860   57.9890   71.0450 C   0  0  0  0  0  0  0  0  0  0  0  0
    2.2920   58.1880   72.0630 C   0  0  0  0  0  0  0  0  0  0  0  0
    1.6120   57.0680   72.4040 N   0  0  0  0  0  0  0  0  0  0  0  0
    0.6570   57.1380   73.3390 C   0  0  0  0  0  0  0  0  0  0  0  0
    0.3070   58.3370   73.9900 C   0  0  0  0  0  0  0  0  0  0  0  0
   -0.7290   58.2980   74.9610 C   0  0  0  0  0  0  0  0  0  0  0  0
   -1.3900   57.1090   75.2720 C   0  0  0  0  0  0  0  0  0  0  0  0
   -1.0320   55.9400   74.6210 C   0  0  0  0  0  0  0  0  0  0  0  0
   -0.0160   55.9680   73.6650 C   0  0  0  0  0  0  0  0  0  0  0  0
    0.2380   65.3120   70.5030 C   0  0  0  0  0  0  0  0  0  0  0  0
    1.1790   66.3250   69.8440 C   0  0  0  0  0  0  0  0  0  0  0  0
    0.5620   67.2430   68.7820 C   0  0  0  0  0  0  0  0  0  0  0  0
    1.4510   67.4280   67.5520 C   0  0  0  0  0  0  0  0  0  0  0  0
    1.3420   69.1260   66.8960 S   0  0  0  0  0  0  0  0  0  0  0  0
    3.0610   69.3620   66.3700 C   0  0  0  0  0  0  0  0  0  0  0  0
    3.4340   69.0700   65.0410 C   0  0  0  0  0  0  0  0  0  0  0  0
    2.4710   68.4810   64.0320 C   0  0  0  0  0  0  0  0  0  0  0  0
    3.1410   67.9210   62.7760 C   0  0  0  0  0  0  0  0  0  0  0  0
    4.1690   68.9050   62.2430 C   0  0  0  0  0  0  0  0  0  0  0  0
    5.2670   69.1070   63.2780 C   0  0  0  0  0  0  0  0  0  0  0  0
    4.7410   69.3820   64.6640 C   0  0  0  0  0  0  0  0  0  0  0  0
    5.6480   69.9050   65.5200 N   0  0  0  0  0  0  0  0  0  0  0  0
    5.3120   70.1120   66.7970 C   0  0  0  0  0  0  0  0  0  0  0  0
    4.0250   69.8490   67.3010 C   0  0  0  0  0  0  0  0  0  0  0  0
    3.7910   70.0880   68.6850 C   0  0  0  0  0  0  0  0  0  0  0  0
    4.7910   70.5810   69.5230 C   0  0  0  0  0  0  0  0  0  0  0  0
    6.0450   70.8480   69.0010 C   0  0  0  0  0  0  0  0  0  0  0  0
    6.2900   70.6090   67.6480 C   0  0  0  0  0  0  0  0  0  0  0  0
    3.0410   63.7341   71.4647 H   0  0  0  0  0  0  0  0  0  0  0  0
    2.1766   63.0273   70.0576 H   0  0  0  0  0  0  0  0  0  0  0  0
    2.6197   64.7681   70.0576 H   0  0  0  0  0  0  0  0  0  0  0  0
    1.1427   64.6681   72.2588 H   0  0  0  0  0  0  0  0  0  0  0  0
   -0.8485   63.1299   71.0817 H   0  0  0  0  0  0  0  0  0  0  0  0
    0.6602   62.1432   71.2101 H   0  0  0  0  0  0  0  0  0  0  0  0
    0.7829   63.1300   73.6365 H   0  0  0  0  0  0  0  0  0  0  0  0
   -0.9737   63.4592   73.3875 H   0  0  0  0  0  0  0  0  0  0  0  0
   -1.3573   61.3158   74.0081 H   0  0  0  0  0  0  0  0  0  0  0  0
   -0.6108   60.8136   72.4629 H   0  0  0  0  0  0  0  0  0  0  0  0
    1.1608   61.2605   74.9183 H   0  0  0  0  0  0  0  0  0  0  0  0
    2.1714   61.2674   71.5763 H   0  0  0  0  0  0  0  0  0  0  0  0
    3.1168   61.1796   73.1409 H   0  0  0  0  0  0  0  0  0  0  0  0
    4.4710   61.2590   70.9725 H   0  0  0  0  0  0  0  0  0  0  0  0
    4.8544   59.9562   72.1592 H   0  0  0  0  0  0  0  0  0  0  0  0
    3.0564   59.6441   69.7052 H   0  0  0  0  0  0  0  0  0  0  0  0
    4.7676   59.1017   69.8246 H   0  0  0  0  0  0  0  0  0  0  0  0
    3.0148   57.3122   70.2613 H   0  0  0  0  0  0  0  0  0  0  0  0
    4.2537   57.5713   71.5766 H   0  0  0  0  0  0  0  0  0  0  0  0
   -1.0164   59.2249   75.4789 H   0  0  0  0  0  0  0  0  0  0  0  0
   -2.1889   57.1002   76.0281 H   0  0  0  0  0  0  0  0  0  0  0  0
   -1.5452   54.9959   74.8561 H   0  0  0  0  0  0  0  0  0  0  0  0
    0.2604   55.0341   73.1537 H   0  0  0  0  0  0  0  0  0  0  0  0
   -0.3323   64.8009   69.7133 H   0  0  0  0  0  0  0  0  0  0  0  0
   -0.4131   65.8728   71.1897 H   0  0  0  0  0  0  0  0  0  0  0  0
    1.5916   66.9638   70.6388 H   0  0  0  0  0  0  0  0  0  0  0  0
    1.9264   65.7216   69.3080 H   0  0  0  0  0  0  0  0  0  0  0  0
   -0.3954   66.8085   68.4586 H   0  0  0  0  0  0  0  0  0  0  0  0
    0.4332   68.2335   69.2427 H   0  0  0  0  0  0  0  0  0  0  0  0
    2.4944   67.2190   67.8307 H   0  0  0  0  0  0  0  0  0  0  0  0
    1.1072   66.7341   66.7708 H   0  0  0  0  0  0  0  0  0  0  0  0
    1.9169   67.6655   64.5198 H   0  0  0  0  0  0  0  0  0  0  0  0
    1.8187   69.3028   63.7017 H   0  0  0  0  0  0  0  0  0  0  0  0
    3.6406   66.9728   63.0234 H   0  0  0  0  0  0  0  0  0  0  0  0
    2.3737   67.7531   62.0059 H   0  0  0  0  0  0  0  0  0  0  0  0
    4.6084   68.5090   61.3156 H   0  0  0  0  0  0  0  0  0  0  0  0
    3.6799   69.8684   62.0365 H   0  0  0  0  0  0  0  0  0  0  0  0
    5.8841   68.1971   63.3136 H   0  0  0  0  0  0  0  0  0  0  0  0
    5.8454   69.9903   62.9693 H   0  0  0  0  0  0  0  0  0  0  0  0
    2.7958   69.8784   69.1041 H   0  0  0  0  0  0  0  0  0  0  0  0
    4.5850   70.7561   70.5893 H   0  0  0  0  0  0  0  0  0  0  0  0
    6.8417   71.2452   69.6472 H   0  0  0  0  0  0  0  0  0  0  0  0
    7.2903   70.8213   67.2427 H   0  0  0  0  0  0  0  0  0  0  0  0
  2  1  1  0
  3  2  1  0
  4  3  1  0
  5  4  1  0
  6  5  1  0
  7  6  1  0
  8  7  1  0
  9  8  1  0
 10  9  1  0
 11 10  1  0
 12 11  1  0
 13 12  1  0
 13  8  2  0
 14 13  1  0
 15 14  2  0
 16 15  1  0
 16  7  2  0
 17 16  1  0
 18 17  2  0
 19 18  1  0
 20 19  2  0
 20 15  1  0
 21  2  1  0
 22 21  1  0
 23 22  1  0
 24 23  1  0
 25 24  1  0
 26 25  1  0
 27 26  1  0
 28 27  1  0
 29 28  1  0
 30 29  1  0
 31 30  1  0
 32 31  1  0
 32 27  2  0
 33 32  1  0
 34 33  2  0
 35 34  1  0
 35 26  2  0
 36 35  1  0
 37 36  2  0
 38 37  1  0
 39 34  1  0
 39 38  2  0
  1 40  1  0
  1 41  1  0
  1 42  1  0
  2 43  1  1
  3 44  1  0
  3 45  1  0
  4 46  1  0
  4 47  1  0
  5 48  1  0
  5 49  1  0
  6 50  1  0
  9 51  1  0
  9 52  1  0
 10 53  1  0
 10 54  1  0
 11 55  1  0
 11 56  1  0
 12 57  1  0
 12 58  1  0
 17 59  1  0
 18 60  1  0
 19 61  1  0
 20 62  1  0
 21 63  1  0
 21 64  1  0
 22 65  1  0
 22 66  1  0
 23 67  1  0
 23 68  1  0
 24 69  1  0
 24 70  1  0
 28 71  1  0
 28 72  1  0
 29 73  1  0
 29 74  1  0
 30 75  1  0
 30 76  1  0
 31 77  1  0
 31 78  1  0
 36 79  1  0
 37 80  1  0
 38 81  1  0
 39 82  1  0
M  CHG  1   2   1
M  END
>  <score>  (9) 
-11.298

$$$$
