=
     RDKit          3D

 49 52  0  0  0  0  0  0  0  0999 V2000
    0.0920   68.5610   65.5410 O   0  0  0  0  0  0  0  0  0  0  0  0
    1.0310   68.6980   66.3110 C   0  0  0  0  0  0  0  0  0  0  0  0
    2.4060   68.7670   66.0400 N   0  0  0  0  0  0  0  0  0  0  0  0
    3.1280   69.0100   67.2390 N   0  0  0  0  0  0  0  0  0  0  0  0
    2.2600   68.9640   68.3390 C   0  0  0  0  0  0  0  0  0  0  0  0
    2.4920   69.1680   69.5240 O   0  0  0  0  0  0  0  0  0  0  0  0
    0.8740   68.7150   67.8100 C   0  0  0  0  0  0  0  0  0  0  0  0
    2.9740   68.0740   64.9230 C   0  0  0  0  0  0  0  0  0  0  0  0
    3.3160   66.7150   65.0080 C   0  0  0  0  0  0  0  0  0  0  0  0
    3.8750   66.0410   63.9170 C   0  0  0  0  0  0  0  0  0  0  0  0
    4.1020   66.7160   62.7220 C   0  0  0  0  0  0  0  0  0  0  0  0
    3.7700   68.0620   62.6170 C   0  0  0  0  0  0  0  0  0  0  0  0
    3.2100   68.7350   63.7090 C   0  0  0  0  0  0  0  0  0  0  0  0
    4.3170   69.8060   67.2730 C   0  0  0  0  0  0  0  0  0  0  0  0
    5.2120   69.8270   66.1910 C   0  0  0  0  0  0  0  0  0  0  0  0
    6.3780   70.5990   66.2330 C   0  0  0  0  0  0  0  0  0  0  0  0
    6.6680   71.3640   67.3590 C   0  0  0  0  0  0  0  0  0  0  0  0
    5.7940   71.3550   68.4420 C   0  0  0  0  0  0  0  0  0  0  0  0
    4.6280   70.5820   68.3990 C   0  0  0  0  0  0  0  0  0  0  0  0
    0.2690   67.3890   68.2850 C   0  0  0  0  0  0  0  0  0  0  0  0
    1.0230   66.7320   69.4410 C   0  0  0  0  0  0  0  0  0  0  0  0
   -0.0150   65.4930   70.2970 S   0  0  0  0  0  3  0  0  0  0  0  0
   -0.3900   66.1230   71.7860 O   0  0  0  0  0  1  0  0  0  0  0  0
    1.2780   64.2580   70.5440 C   0  0  0  0  0  0  0  0  0  0  0  0
    0.9320   62.9870   71.0160 C   0  0  0  0  0  0  0  0  0  0  0  0
    1.9190   62.0190   71.2120 C   0  0  0  0  0  0  0  0  0  0  0  0
    3.2530   62.3190   70.9420 C   0  0  0  0  0  0  0  0  0  0  0  0
    3.6030   63.5870   70.4810 C   0  0  0  0  0  0  0  0  0  0  0  0
    2.6180   64.5570   70.2840 C   0  0  0  0  0  0  0  0  0  0  0  0
    0.1849   69.4914   68.1737 H   0  0  0  0  0  0  0  0  0  0  0  0
    3.1415   66.1711   65.9481 H   0  0  0  0  0  0  0  0  0  0  0  0
    4.1354   64.9758   64.0042 H   0  0  0  0  0  0  0  0  0  0  0  0
    4.5423   66.1871   61.8639 H   0  0  0  0  0  0  0  0  0  0  0  0
    3.9478   68.5992   61.6737 H   0  0  0  0  0  0  0  0  0  0  0  0
    2.9508   69.7997   63.6134 H   0  0  0  0  0  0  0  0  0  0  0  0
    4.9927   69.2266   65.2958 H   0  0  0  0  0  0  0  0  0  0  0  0
    7.0664   70.6014   65.3751 H   0  0  0  0  0  0  0  0  0  0  0  0
    7.5836   71.9728   67.3927 H   0  0  0  0  0  0  0  0  0  0  0  0
    6.0202   71.9571   69.3343 H   0  0  0  0  0  0  0  0  0  0  0  0
    3.9452   70.5832   69.2614 H   0  0  0  0  0  0  0  0  0  0  0  0
   -0.7642   67.5790   68.6113 H   0  0  0  0  0  0  0  0  0  0  0  0
    0.3277   66.6935   67.4348 H   0  0  0  0  0  0  0  0  0  0  0  0
    1.9211   66.2348   69.0458 H   0  0  0  0  0  0  0  0  0  0  0  0
    1.2961   67.5140   70.1648 H   0  0  0  0  0  0  0  0  0  0  0  0
   -0.1200   62.7499   71.2331 H   0  0  0  0  0  0  0  0  0  0  0  0
    1.6437   61.0195   71.5796 H   0  0  0  0  0  0  0  0  0  0  0  0
    4.0298   61.5549   71.0927 H   0  0  0  0  0  0  0  0  0  0  0  0
    4.6567   63.8239   70.2721 H   0  0  0  0  0  0  0  0  0  0  0  0
    2.8974   65.5580   69.9236 H   0  0  0  0  0  0  0  0  0  0  0  0
  2  1  2  0
  3  2  1  0
  4  3  1  0
  5  4  1  0
  6  5  2  0
  7  5  1  0
  7  2  1  0
  8  3  1  0
  9  8  2  0
 10  9  1  0
 11 10  2  0
 12 11  1  0
 13 12  2  0
 13  8  1  0
 14  4  1  0
 15 14  2  0
 16 15  1  0
 17 16  2  0
 18 17  1  0
 19 14  1  0
 19 18  2  0
 20  7  1  0
 21 20  1  0
 22 21  1  0
 22 23  1  1
 24 22  1  0
 25 24  2  0
 26 25  1  0
 27 26  2  0
 28 27  1  0
 29 28  2  0
 29 24  1  0
  7 30  1  0
  9 31  1  0
 10 32  1  0
 11 33  1  0
 12 34  1  0
 13 35  1  0
 15 36  1  0
 16 37  1  0
 17 38  1  0
 18 39  1  0
 19 40  1  0
 20 41  1  0
 20 42  1  0
 21 43  1  0
 21 44  1  0
 25 45  1  0
 26 46  1  0
 27 47  1  0
 28 48  1  0
 29 49  1  0
M  CHG  2  22   1  23  -1
M  END
>  <score>  (1) 
-10.549

$$$$
=
     RDKit          3D

 49 52  0  0  0  0  0  0  0  0999 V2000
   -0.4340   70.8430   67.4800 O   0  0  0  0  0  0  0  0  0  0  0  0
   -0.3300   69.6270   67.5600 C   0  0  0  0  0  0  0  0  0  0  0  0
    0.7030   68.8530   68.1100 N   0  0  0  0  0  0  0  0  0  0  0  0
    0.3620   67.4750   68.0550 N   0  0  0  0  0  0  0  0  0  0  0  0
   -0.8340   67.3050   67.3440 C   0  0  0  0  0  0  0  0  0  0  0  0
   -1.4720   66.2830   67.1240 O   0  0  0  0  0  0  0  0  0  0  0  0
   -1.3210   68.6720   66.9460 C   0  0  0  0  0  0  0  0  0  0  0  0
    2.0590   69.3150   68.0960 C   0  0  0  0  0  0  0  0  0  0  0  0
    2.6270   69.9340   69.2210 C   0  0  0  0  0  0  0  0  0  0  0  0
    3.9500   70.3890   69.2030 C   0  0  0  0  0  0  0  0  0  0  0  0
    4.7270   70.2320   68.0590 C   0  0  0  0  0  0  0  0  0  0  0  0
    4.1830   69.6200   66.9350 C   0  0  0  0  0  0  0  0  0  0  0  0
    2.8590   69.1660   66.9540 C   0  0  0  0  0  0  0  0  0  0  0  0
    0.7520   66.5450   69.0710 C   0  0  0  0  0  0  0  0  0  0  0  0
    1.9660   65.8450   68.9900 C   0  0  0  0  0  0  0  0  0  0  0  0
    2.3390   64.9310   69.9810 C   0  0  0  0  0  0  0  0  0  0  0  0
    1.5030   64.7010   71.0700 C   0  0  0  0  0  0  0  0  0  0  0  0
    0.2950   65.3840   71.1660 C   0  0  0  0  0  0  0  0  0  0  0  0
   -0.0770   66.2990   70.1750 C   0  0  0  0  0  0  0  0  0  0  0  0
   -1.3760   68.8830   65.4290 C   0  0  0  0  0  0  0  0  0  0  0  0
   -0.2070   68.2580   64.6650 C   0  0  0  0  0  0  0  0  0  0  0  0
    0.2980   69.3000   63.2500 S   0  0  0  0  0  3  0  0  0  0  0  0
   -0.7150   68.9260   61.9890 O   0  0  0  0  0  1  0  0  0  0  0  0
    1.8770   68.4860   62.9320 C   0  0  0  0  0  0  0  0  0  0  0  0
    2.3930   67.5950   63.8790 C   0  0  0  0  0  0  0  0  0  0  0  0
    3.6130   66.9550   63.6490 C   0  0  0  0  0  0  0  0  0  0  0  0
    4.3220   67.2070   62.4760 C   0  0  0  0  0  0  0  0  0  0  0  0
    3.8160   68.1020   61.5330 C   0  0  0  0  0  0  0  0  0  0  0  0
    2.5970   68.7420   61.7610 C   0  0  0  0  0  0  0  0  0  0  0  0
   -2.3539   68.8218   67.2934 H   0  0  0  0  0  0  0  0  0  0  0  0
    2.0224   70.0633   70.1308 H   0  0  0  0  0  0  0  0  0  0  0  0
    4.3768   70.8716   70.0946 H   0  0  0  0  0  0  0  0  0  0  0  0
    5.7669   70.5904   68.0440 H   0  0  0  0  0  0  0  0  0  0  0  0
    4.7942   69.4924   66.0294 H   0  0  0  0  0  0  0  0  0  0  0  0
    2.4393   68.6845   66.0585 H   0  0  0  0  0  0  0  0  0  0  0  0
    2.6345   66.0179   68.1337 H   0  0  0  0  0  0  0  0  0  0  0  0
    3.2949   64.3929   69.8996 H   0  0  0  0  0  0  0  0  0  0  0  0
    1.7960   63.9832   71.8503 H   0  0  0  0  0  0  0  0  0  0  0  0
   -0.3699   65.2042   72.0237 H   0  0  0  0  0  0  0  0  0  0  0  0
   -1.0343   66.8335   70.2632 H   0  0  0  0  0  0  0  0  0  0  0  0
   -2.3099   68.4399   65.0529 H   0  0  0  0  0  0  0  0  0  0  0  0
   -1.3199   69.9683   65.2591 H   0  0  0  0  0  0  0  0  0  0  0  0
    0.6473   68.1441   65.3485 H   0  0  0  0  0  0  0  0  0  0  0  0
   -0.5297   67.2804   64.2774 H   0  0  0  0  0  0  0  0  0  0  0  0
    1.8365   67.3979   64.8072 H   0  0  0  0  0  0  0  0  0  0  0  0
    4.0142   66.2520   64.3938 H   0  0  0  0  0  0  0  0  0  0  0  0
    5.2810   66.7000   62.2936 H   0  0  0  0  0  0  0  0  0  0  0  0
    4.3782   68.3033   60.6092 H   0  0  0  0  0  0  0  0  0  0  0  0
    2.2015   69.4497   61.0175 H   0  0  0  0  0  0  0  0  0  0  0  0
  2  1  2  0
  3  2  1  0
  4  3  1  0
  5  4  1  0
  6  5  2  0
  7  5  1  0
  7  2  1  0
  8  3  1  0
  9  8  2  0
 10  9  1  0
 11 10  2  0
 12 11  1  0
 13 12  2  0
 13  8  1  0
 14  4  1  0
 15 14  2  0
 16 15  1  0
 17 16  2  0
 18 17  1  0
 19 14  1  0
 19 18  2  0
 20  7  1  0
 21 20  1  0
 22 21  1  0
 22 23  1  6
 24 22  1  0
 25 24  2  0
 26 25  1  0
 27 26  2  0
 28 27  1  0
 29 28  2  0
 29 24  1  0
  7 30  1  0
  9 31  1  0
 10 32  1  0
 11 33  1  0
 12 34  1  0
 13 35  1  0
 15 36  1  0
 16 37  1  0
 17 38  1  0
 18 39  1  0
 19 40  1  0
 20 41  1  0
 20 42  1  0
 21 43  1  0
 21 44  1  0
 25 45  1  0
 26 46  1  0
 27 47  1  0
 28 48  1  0
 29 49  1  0
M  CHG  2  22   1  23  -1
M  END
>  <score>  (2) 
-9.63

$$$$
=
     RDKit          3D

 49 52  0  0  0  0  0  0  0  0999 V2000
    2.5450   65.8210   65.6910 O   0  0  0  0  0  0  0  0  0  0  0  0
    1.8870   66.7960   65.3580 C   0  0  0  0  0  0  0  0  0  0  0  0
    2.0720   67.6730   64.2790 N   0  0  0  0  0  0  0  0  0  0  0  0
    1.0160   68.6210   64.2330 N   0  0  0  0  0  0  0  0  0  0  0  0
    0.1930   68.4770   65.3590 C   0  0  0  0  0  0  0  0  0  0  0  0
   -0.8360   69.0710   65.6530 O   0  0  0  0  0  0  0  0  0  0  0  0
    0.7320   67.3290   66.1680 C   0  0  0  0  0  0  0  0  0  0  0  0
    3.3820   67.9510   63.7700 C   0  0  0  0  0  0  0  0  0  0  0  0
    4.0850   69.1020   64.1610 C   0  0  0  0  0  0  0  0  0  0  0  0
    5.3620   69.3740   63.6590 C   0  0  0  0  0  0  0  0  0  0  0  0
    5.9580   68.4980   62.7560 C   0  0  0  0  0  0  0  0  0  0  0  0
    5.2790   67.3520   62.3580 C   0  0  0  0  0  0  0  0  0  0  0  0
    4.0020   67.0820   62.8610 C   0  0  0  0  0  0  0  0  0  0  0  0
    0.4940   69.1330   63.0020 C   0  0  0  0  0  0  0  0  0  0  0  0
   -0.8180   69.6240   62.9140 C   0  0  0  0  0  0  0  0  0  0  0  0
   -1.3250   70.1160   61.7060 C   0  0  0  0  0  0  0  0  0  0  0  0
   -0.5280   70.1250   60.5660 C   0  0  0  0  0  0  0  0  0  0  0  0
    0.7750   69.6410   60.6330 C   0  0  0  0  0  0  0  0  0  0  0  0
    1.2820   69.1500   61.8420 C   0  0  0  0  0  0  0  0  0  0  0  0
    1.2210   67.7400   67.5610 C   0  0  0  0  0  0  0  0  0  0  0  0
    2.5750   68.4500   67.5680 C   0  0  0  0  0  0  0  0  0  0  0  0
    2.6610   69.7130   68.8880 S   0  0  0  0  0  3  0  0  0  0  0  0
    1.7210   70.9900   68.3960 O   0  0  0  0  0  1  0  0  0  0  0  0
    4.3840   70.1820   68.6320 C   0  0  0  0  0  0  0  0  0  0  0  0
    4.9170   70.1600   67.3380 C   0  0  0  0  0  0  0  0  0  0  0  0
    6.2480   70.5210   67.1210 C   0  0  0  0  0  0  0  0  0  0  0  0
    7.0520   70.9000   68.1950 C   0  0  0  0  0  0  0  0  0  0  0  0
    6.5270   70.9160   69.4870 C   0  0  0  0  0  0  0  0  0  0  0  0
    5.1970   70.5550   69.7060 C   0  0  0  0  0  0  0  0  0  0  0  0
   -0.0614   66.5889   66.3492 H   0  0  0  0  0  0  0  0  0  0  0  0
    3.6238   69.8014   64.8739 H   0  0  0  0  0  0  0  0  0  0  0  0
    5.8959   70.2812   63.9782 H   0  0  0  0  0  0  0  0  0  0  0  0
    6.9615   68.7116   62.3593 H   0  0  0  0  0  0  0  0  0  0  0  0
    5.7469   66.6561   61.6461 H   0  0  0  0  0  0  0  0  0  0  0  0
    3.4751   66.1721   62.5378 H   0  0  0  0  0  0  0  0  0  0  0  0
   -1.4578   69.6220   63.8088 H   0  0  0  0  0  0  0  0  0  0  0  0
   -2.3560   70.4964   61.6579 H   0  0  0  0  0  0  0  0  0  0  0  0
   -0.9256   70.5127   59.6165 H   0  0  0  0  0  0  0  0  0  0  0  0
    1.4083   69.6442   59.7336 H   0  0  0  0  0  0  0  0  0  0  0  0
    2.3141   68.7718   61.8827 H   0  0  0  0  0  0  0  0  0  0  0  0
    0.4747   68.4169   68.0023 H   0  0  0  0  0  0  0  0  0  0  0  0
    1.3491   66.8115   68.1367 H   0  0  0  0  0  0  0  0  0  0  0  0
    3.3682   67.7059   67.7327 H   0  0  0  0  0  0  0  0  0  0  0  0
    2.7064   68.9534   66.5988 H   0  0  0  0  0  0  0  0  0  0  0  0
    4.2854   69.8574   66.4897 H   0  0  0  0  0  0  0  0  0  0  0  0
    6.6625   70.5064   66.1022 H   0  0  0  0  0  0  0  0  0  0  0  0
    8.1001   71.1863   68.0235 H   0  0  0  0  0  0  0  0  0  0  0  0
    7.1621   71.2136   70.3344 H   0  0  0  0  0  0  0  0  0  0  0  0
    4.7872   70.5640   70.7268 H   0  0  0  0  0  0  0  0  0  0  0  0
  2  1  2  0
  3  2  1  0
  4  3  1  0
  5  4  1  0
  6  5  2  0
  7  5  1  0
  7  2  1  0
  8  3  1  0
  9  8  2  0
 10  9  1  0
 11 10  2  0
 12 11  1  0
 13 12  2  0
 13  8  1  0
 14  4  1  0
 15 14  2  0
 16 15  1  0
 17 16  2  0
 18 17  1  0
 19 14  1  0
 19 18  2  0
 20  7  1  0
 21 20  1  0
 22 21  1  0
 22 23  1  6
 24 22  1  0
 25 24  2  0
 26 25  1  0
 27 26  2  0
 28 27  1  0
 29 28  2  0
 29 24  1  0
  7 30  1  0
  9 31  1  0
 10 32  1  0
 11 33  1  0
 12 34  1  0
 13 35  1  0
 15 36  1  0
 16 37  1  0
 17 38  1  0
 18 39  1  0
 19 40  1  0
 20 41  1  0
 20 42  1  0
 21 43  1  0
 21 44  1  0
 25 45  1  0
 26 46  1  0
 27 47  1  0
 28 48  1  0
 29 49  1  0
M  CHG  2  22   1  23  -1
M  END
>  <score>  (3) 
-9.534

$$$$
=
     RDKit          3D

 49 52  0  0  0  0  0  0  0  0999 V2000
    4.0750   64.0150   70.6600 O   0  0  0  0  0  0  0  0  0  0  0  0
    2.9350   63.8250   71.0590 C   0  0  0  0  0  0  0  0  0  0  0  0
    2.3340   62.6430   71.5180 N   0  0  0  0  0  0  0  0  0  0  0  0
    1.0090   62.9080   71.9570 N   0  0  0  0  0  0  0  0  0  0  0  0
    0.6640   64.2350   71.6650 C   0  0  0  0  0  0  0  0  0  0  0  0
   -0.3630   64.8480   71.9270 O   0  0  0  0  0  0  0  0  0  0  0  0
    1.8620   64.8850   71.0310 C   0  0  0  0  0  0  0  0  0  0  0  0
    2.7410   61.3650   71.0160 C   0  0  0  0  0  0  0  0  0  0  0  0
    3.0280   61.1770   69.6540 C   0  0  0  0  0  0  0  0  0  0  0  0
    3.4200   59.9260   69.1650 C   0  0  0  0  0  0  0  0  0  0  0  0
    3.5320   58.8430   70.0300 C   0  0  0  0  0  0  0  0  0  0  0  0
    3.2540   59.0090   71.3830 C   0  0  0  0  0  0  0  0  0  0  0  0
    2.8620   60.2600   71.8710 C   0  0  0  0  0  0  0  0  0  0  0  0
    0.4110   62.2180   73.0600 C   0  0  0  0  0  0  0  0  0  0  0  0
   -0.6830   61.3580   72.8750 C   0  0  0  0  0  0  0  0  0  0  0  0
   -1.2690   60.6920   73.9560 C   0  0  0  0  0  0  0  0  0  0  0  0
   -0.7700   60.8750   75.2420 C   0  0  0  0  0  0  0  0  0  0  0  0
    0.3130   61.7250   75.4460 C   0  0  0  0  0  0  0  0  0  0  0  0
    0.8990   62.3900   74.3630 C   0  0  0  0  0  0  0  0  0  0  0  0
    1.6190   65.3390   69.5880 C   0  0  0  0  0  0  0  0  0  0  0  0
    1.0470   66.7510   69.4610 C   0  0  0  0  0  0  0  0  0  0  0  0
    1.4520   67.4930   67.8390 S   0  0  0  0  0  3  0  0  0  0  0  0
    2.1160   68.9840   68.1420 O   0  0  0  0  0  1  0  0  0  0  0  0
   -0.2460   67.7610   67.2910 C   0  0  0  0  0  0  0  0  0  0  0  0
   -0.5240   68.8040   66.4000 C   0  0  0  0  0  0  0  0  0  0  0  0
   -1.8320   69.0250   65.9650 C   0  0  0  0  0  0  0  0  0  0  0  0
   -2.8660   68.2080   66.4200 C   0  0  0  0  0  0  0  0  0  0  0  0
   -2.5950   67.1730   67.3140 C   0  0  0  0  0  0  0  0  0  0  0  0
   -1.2880   66.9510   67.7510 C   0  0  0  0  0  0  0  0  0  0  0  0
    2.1288   65.8009   71.5787 H   0  0  0  0  0  0  0  0  0  0  0  0
    2.9432   62.0268   68.9607 H   0  0  0  0  0  0  0  0  0  0  0  0
    3.6399   59.7990   68.0947 H   0  0  0  0  0  0  0  0  0  0  0  0
    3.8392   57.8590   69.6460 H   0  0  0  0  0  0  0  0  0  0  0  0
    3.3426   58.1548   72.0704 H   0  0  0  0  0  0  0  0  0  0  0  0
    2.6451   60.3789   72.9428 H   0  0  0  0  0  0  0  0  0  0  0  0
   -1.0860   61.2055   71.8629 H   0  0  0  0  0  0  0  0  0  0  0  0
   -2.1257   60.0224   73.7895 H   0  0  0  0  0  0  0  0  0  0  0  0
   -1.2291   60.3506   76.0930 H   0  0  0  0  0  0  0  0  0  0  0  0
    0.7094   61.8745   76.4611 H   0  0  0  0  0  0  0  0  0  0  0  0
    1.7556   63.0579   74.5367 H   0  0  0  0  0  0  0  0  0  0  0  0
    2.5781   65.3061   69.0503 H   0  0  0  0  0  0  0  0  0  0  0  0
    0.8681   64.6555   69.1648 H   0  0  0  0  0  0  0  0  0  0  0  0
   -0.0466   66.7051   69.5703 H   0  0  0  0  0  0  0  0  0  0  0  0
    1.4926   67.3767   70.2484 H   0  0  0  0  0  0  0  0  0  0  0  0
    0.2901   69.4511   66.0416 H   0  0  0  0  0  0  0  0  0  0  0  0
   -2.0469   69.8441   65.2629 H   0  0  0  0  0  0  0  0  0  0  0  0
   -3.8958   68.3800   66.0736 H   0  0  0  0  0  0  0  0  0  0  0  0
   -3.4118   66.5309   67.6752 H   0  0  0  0  0  0  0  0  0  0  0  0
   -1.0775   66.1362   68.4594 H   0  0  0  0  0  0  0  0  0  0  0  0
  2  1  2  0
  3  2  1  0
  4  3  1  0
  5  4  1  0
  6  5  2  0
  7  5  1  0
  7  2  1  0
  8  3  1  0
  9  8  2  0
 10  9  1  0
 11 10  2  0
 12 11  1  0
 13 12  2  0
 13  8  1  0
 14  4  1  0
 15 14  2  0
 16 15  1  0
 17 16  2  0
 18 17  1  0
 19 14  1  0
 19 18  2  0
 20  7  1  0
 21 20  1  0
 22 21  1  0
 22 23  1  1
 24 22  1  0
 25 24  2  0
 26 25  1  0
 27 26  2  0
 28 27  1  0
 29 28  2  0
 29 24  1  0
  7 30  1  0
  9 31  1  0
 10 32  1  0
 11 33  1  0
 12 34  1  0
 13 35  1  0
 15 36  1  0
 16 37  1  0
 17 38  1  0
 18 39  1  0
 19 40  1  0
 20 41  1  0
 20 42  1  0
 21 43  1  0
 21 44  1  0
 25 45  1  0
 26 46  1  0
 27 47  1  0
 28 48  1  0
 29 49  1  0
M  CHG  2  22   1  23  -1
M  END
>  <score>  (4) 
-9.512

$$$$
=
     RDKit          3D

 49 52  0  0  0  0  0  0  0  0999 V2000
    2.2080   66.2590   67.1110 O   0  0  0  0  0  0  0  0  0  0  0  0
    1.5330   67.0090   66.4200 C   0  0  0  0  0  0  0  0  0  0  0  0
    1.9440   67.9880   65.5030 N   0  0  0  0  0  0  0  0  0  0  0  0
    0.8120   68.5660   64.8670 N   0  0  0  0  0  0  0  0  0  0  0  0
   -0.3650   68.0810   65.4510 C   0  0  0  0  0  0  0  0  0  0  0  0
   -1.5320   68.3020   65.1520 O   0  0  0  0  0  0  0  0  0  0  0  0
    0.0310   67.0900   66.5110 C   0  0  0  0  0  0  0  0  0  0  0  0
    3.1750   68.6980   65.6830 C   0  0  0  0  0  0  0  0  0  0  0  0
    4.1510   68.7280   64.6730 C   0  0  0  0  0  0  0  0  0  0  0  0
    5.3550   69.4170   64.8530 C   0  0  0  0  0  0  0  0  0  0  0  0
    5.6030   70.0880   66.0450 C   0  0  0  0  0  0  0  0  0  0  0  0
    4.6490   70.0720   67.0570 C   0  0  0  0  0  0  0  0  0  0  0  0
    3.4460   69.3820   66.8760 C   0  0  0  0  0  0  0  0  0  0  0  0
    0.8340   68.9960   63.5020 C   0  0  0  0  0  0  0  0  0  0  0  0
   -0.2100   69.7650   62.9630 C   0  0  0  0  0  0  0  0  0  0  0  0
   -0.1890   70.1750   61.6260 C   0  0  0  0  0  0  0  0  0  0  0  0
    0.8780   69.8230   60.8040 C   0  0  0  0  0  0  0  0  0  0  0  0
    1.9210   69.0590   61.3200 C   0  0  0  0  0  0  0  0  0  0  0  0
    1.8990   68.6500   62.6570 C   0  0  0  0  0  0  0  0  0  0  0  0
   -0.3820   67.5110   67.9260 C   0  0  0  0  0  0  0  0  0  0  0  0
   -0.5420   66.3490   68.9060 C   0  0  0  0  0  0  0  0  0  0  0  0
    0.4680   66.5990   70.4100 S   0  0  0  0  0  3  0  0  0  0  0  0
    1.7940   67.4890   69.9580 O   0  0  0  0  0  1  0  0  0  0  0  0
    1.0050   64.8870   70.6010 C   0  0  0  0  0  0  0  0  0  0  0  0
    2.3020   64.5280   70.2160 C   0  0  0  0  0  0  0  0  0  0  0  0
    2.7350   63.2080   70.3570 C   0  0  0  0  0  0  0  0  0  0  0  0
    1.8740   62.2430   70.8780 C   0  0  0  0  0  0  0  0  0  0  0  0
    0.5780   62.5950   71.2540 C   0  0  0  0  0  0  0  0  0  0  0  0
    0.1430   63.9140   71.1140 C   0  0  0  0  0  0  0  0  0  0  0  0
   -0.4759   66.1291   66.3385 H   0  0  0  0  0  0  0  0  0  0  0  0
    3.9654   68.2012   63.7253 H   0  0  0  0  0  0  0  0  0  0  0  0
    6.1068   69.4279   64.0501 H   0  0  0  0  0  0  0  0  0  0  0  0
    6.5499   70.6294   66.1872 H   0  0  0  0  0  0  0  0  0  0  0  0
    4.8410   70.6028   68.0011 H   0  0  0  0  0  0  0  0  0  0  0  0
    2.6996   69.3760   67.6839 H   0  0  0  0  0  0  0  0  0  0  0  0
   -1.0583   70.0496   63.6028 H   0  0  0  0  0  0  0  0  0  0  0  0
   -1.0171   70.7767   61.2232 H   0  0  0  0  0  0  0  0  0  0  0  0
    0.8968   70.1467   59.7529 H   0  0  0  0  0  0  0  0  0  0  0  0
    2.7652   68.7761   60.6739 H   0  0  0  0  0  0  0  0  0  0  0  0
    2.7300   68.0474   63.0524 H   0  0  0  0  0  0  0  0  0  0  0  0
    0.3865   68.1917   68.3211 H   0  0  0  0  0  0  0  0  0  0  0  0
   -1.3697   67.9870   67.8376 H   0  0  0  0  0  0  0  0  0  0  0  0
   -1.6002   66.2681   69.1951 H   0  0  0  0  0  0  0  0  0  0  0  0
   -0.2009   65.4286   68.4095 H   0  0  0  0  0  0  0  0  0  0  0  0
    2.9815   65.2873   69.8015 H   0  0  0  0  0  0  0  0  0  0  0  0
    3.7559   62.9293   70.0569 H   0  0  0  0  0  0  0  0  0  0  0  0
    2.2169   61.2041   70.9925 H   0  0  0  0  0  0  0  0  0  0  0  0
   -0.1022   61.8325   71.6613 H   0  0  0  0  0  0  0  0  0  0  0  0
   -0.8808   64.1882   71.4082 H   0  0  0  0  0  0  0  0  0  0  0  0
  2  1  2  0
  3  2  1  0
  4  3  1  0
  5  4  1  0
  6  5  2  0
  7  5  1  0
  7  2  1  0
  8  3  1  0
  9  8  2  0
 10  9  1  0
 11 10  2  0
 12 11  1  0
 13 12  2  0
 13  8  1  0
 14  4  1  0
 15 14  2  0
 16 15  1  0
 17 16  2  0
 18 17  1  0
 19 14  1  0
 19 18  2  0
 20  7  1  0
 21 20  1  0
 22 21  1  0
 22 23  1  6
 24 22  1  0
 25 24  2  0
 26 25  1  0
 27 26  2  0
 28 27  1  0
 29 28  2  0
 29 24  1  0
  7 30  1  0
  9 31  1  0
 10 32  1  0
 11 33  1  0
 12 34  1  0
 13 35  1  0
 15 36  1  0
 16 37  1  0
 17 38  1  0
 18 39  1  0
 19 40  1  0
 20 41  1  0
 20 42  1  0
 21 43  1  0
 21 44  1  0
 25 45  1  0
 26 46  1  0
 27 47  1  0
 28 48  1  0
 29 49  1  0
M  CHG  2  22   1  23  -1
M  END
>  <score>  (5) 
-9.45

$$$$
=
     RDKit          3D

 49 52  0  0  0  0  0  0  0  0999 V2000
    3.2330   59.8340   75.5840 O   0  0  0  0  0  0  0  0  0  0  0  0
    3.1660   59.8510   74.3630 C   0  0  0  0  0  0  0  0  0  0  0  0
    2.8170   60.9030   73.5030 N   0  0  0  0  0  0  0  0  0  0  0  0
    2.9520   60.4920   72.1500 N   0  0  0  0  0  0  0  0  0  0  0  0
    3.2540   59.1250   72.0920 C   0  0  0  0  0  0  0  0  0  0  0  0
    3.4900   58.4200   71.1200 O   0  0  0  0  0  0  0  0  0  0  0  0
    3.3630   58.6260   73.5070 C   0  0  0  0  0  0  0  0  0  0  0  0
    1.8930   61.9180   73.9150 C   0  0  0  0  0  0  0  0  0  0  0  0
    1.5050   62.0450   75.2580 C   0  0  0  0  0  0  0  0  0  0  0  0
    0.5980   63.0330   75.6570 C   0  0  0  0  0  0  0  0  0  0  0  0
    0.0640   63.9100   74.7180 C   0  0  0  0  0  0  0  0  0  0  0  0
    0.4380   63.8020   73.3830 C   0  0  0  0  0  0  0  0  0  0  0  0
    1.3440   62.8130   72.9860 C   0  0  0  0  0  0  0  0  0  0  0  0
    3.3760   61.3840   71.1140 C   0  0  0  0  0  0  0  0  0  0  0  0
    4.4840   62.2290   71.2870 C   0  0  0  0  0  0  0  0  0  0  0  0
    4.8890   63.1050   70.2740 C   0  0  0  0  0  0  0  0  0  0  0  0
    4.1920   63.1510   69.0710 C   0  0  0  0  0  0  0  0  0  0  0  0
    3.0900   62.3220   68.8810 C   0  0  0  0  0  0  0  0  0  0  0  0
    2.6860   61.4460   69.8940 C   0  0  0  0  0  0  0  0  0  0  0  0
    2.3130   57.5690   73.8640 C   0  0  0  0  0  0  0  0  0  0  0  0
    0.8890   57.9290   73.4390 C   0  0  0  0  0  0  0  0  0  0  0  0
   -0.3380   57.3830   74.6820 S   0  0  0  0  0  3  0  0  0  0  0  0
   -1.0850   56.0360   74.0630 O   0  0  0  0  0  1  0  0  0  0  0  0
   -1.4770   58.7690   74.4880 C   0  0  0  0  0  0  0  0  0  0  0  0
   -1.0850   59.8810   73.7340 C   0  0  0  0  0  0  0  0  0  0  0  0
   -1.9540   60.9610   73.5730 C   0  0  0  0  0  0  0  0  0  0  0  0
   -3.2150   60.9360   74.1670 C   0  0  0  0  0  0  0  0  0  0  0  0
   -3.6070   59.8350   74.9270 C   0  0  0  0  0  0  0  0  0  0  0  0
   -2.7390   58.7530   75.0890 C   0  0  0  0  0  0  0  0  0  0  0  0
    4.3329   58.1299   73.6595 H   0  0  0  0  0  0  0  0  0  0  0  0
    1.9206   61.3568   76.0088 H   0  0  0  0  0  0  0  0  0  0  0  0
    0.3068   63.1165   76.7145 H   0  0  0  0  0  0  0  0  0  0  0  0
   -0.6509   64.6854   75.0303 H   0  0  0  0  0  0  0  0  0  0  0  0
    0.0207   64.4954   72.6380 H   0  0  0  0  0  0  0  0  0  0  0  0
    1.6306   62.7362   71.9268 H   0  0  0  0  0  0  0  0  0  0  0  0
    5.0426   62.2018   72.2342 H   0  0  0  0  0  0  0  0  0  0  0  0
    5.7601   63.7585   70.4291 H   0  0  0  0  0  0  0  0  0  0  0  0
    4.5101   63.8390   68.2739 H   0  0  0  0  0  0  0  0  0  0  0  0
    2.5354   62.3559   67.9317 H   0  0  0  0  0  0  0  0  0  0  0  0
    1.8138   60.7957   69.7315 H   0  0  0  0  0  0  0  0  0  0  0  0
    2.5918   56.6260   73.3710 H   0  0  0  0  0  0  0  0  0  0  0  0
    2.3044   57.4911   74.9612 H   0  0  0  0  0  0  0  0  0  0  0  0
    0.8163   59.0201   73.3198 H   0  0  0  0  0  0  0  0  0  0  0  0
    0.6714   57.4169   72.4901 H   0  0  0  0  0  0  0  0  0  0  0  0
   -0.0893   59.9038   73.2670 H   0  0  0  0  0  0  0  0  0  0  0  0
   -1.6439   61.8322   72.9773 H   0  0  0  0  0  0  0  0  0  0  0  0
   -3.9012   61.7857   74.0359 H   0  0  0  0  0  0  0  0  0  0  0  0
   -4.6003   59.8185   75.3992 H   0  0  0  0  0  0  0  0  0  0  0  0
   -3.0491   57.8861   75.6910 H   0  0  0  0  0  0  0  0  0  0  0  0
  2  1  2  0
  3  2  1  0
  4  3  1  0
  5  4  1  0
  6  5  2  0
  7  5  1  0
  7  2  1  0
  8  3  1  0
  9  8  2  0
 10  9  1  0
 11 10  2  0
 12 11  1  0
 13 12  2  0
 13  8  1  0
 14  4  1  0
 15 14  2  0
 16 15  1  0
 17 16  2  0
 18 17  1  0
 19 14  1  0
 19 18  2  0
 20  7  1  0
 21 20  1  0
 22 21  1  0
 22 23  1  6
 24 22  1  0
 25 24  2  0
 26 25  1  0
 27 26  2  0
 28 27  1  0
 29 28  2  0
 29 24  1  0
  7 30  1  0
  9 31  1  0
 10 32  1  0
 11 33  1  0
 12 34  1  0
 13 35  1  0
 15 36  1  0
 16 37  1  0
 17 38  1  0
 18 39  1  0
 19 40  1  0
 20 41  1  0
 20 42  1  0
 21 43  1  0
 21 44  1  0
 25 45  1  0
 26 46  1  0
 27 47  1  0
 28 48  1  0
 29 49  1  0
M  CHG  2  22   1  23  -1
M  END
>  <score>  (6) 
-9.433

$$$$
=
     RDKit          3D

 49 52  0  0  0  0  0  0  0  0999 V2000
    3.8830   64.6240   70.3970 O   0  0  0  0  0  0  0  0  0  0  0  0
    2.7210   64.4670   70.7450 C   0  0  0  0  0  0  0  0  0  0  0  0
    2.0830   63.3170   71.2340 N   0  0  0  0  0  0  0  0  0  0  0  0
    0.7400   63.6160   71.5860 N   0  0  0  0  0  0  0  0  0  0  0  0
    0.4260   64.9280   71.2060 C   0  0  0  0  0  0  0  0  0  0  0  0
   -0.6060   65.5640   71.3790 O   0  0  0  0  0  0  0  0  0  0  0  0
    1.6640   65.5320   70.6030 C   0  0  0  0  0  0  0  0  0  0  0  0
    2.5010   62.0100   70.8230 C   0  0  0  0  0  0  0  0  0  0  0  0
    2.5810   60.9500   71.7410 C   0  0  0  0  0  0  0  0  0  0  0  0
    2.9950   59.6760   71.3380 C   0  0  0  0  0  0  0  0  0  0  0  0
    3.3350   59.4400   70.0100 C   0  0  0  0  0  0  0  0  0  0  0  0
    3.2620   60.4750   69.0860 C   0  0  0  0  0  0  0  0  0  0  0  0
    2.8480   61.7500   69.4900 C   0  0  0  0  0  0  0  0  0  0  0  0
    0.0770   62.9910   72.6900 C   0  0  0  0  0  0  0  0  0  0  0  0
    0.3350   63.3840   74.0140 C   0  0  0  0  0  0  0  0  0  0  0  0
   -0.3090   62.7640   75.0890 C   0  0  0  0  0  0  0  0  0  0  0  0
   -1.2230   61.7400   74.8590 C   0  0  0  0  0  0  0  0  0  0  0  0
   -1.4910   61.3360   73.5550 C   0  0  0  0  0  0  0  0  0  0  0  0
   -0.8470   61.9570   72.4800 C   0  0  0  0  0  0  0  0  0  0  0  0
    1.5020   65.9100   69.1260 C   0  0  0  0  0  0  0  0  0  0  0  0
    0.9420   67.3140   68.8950 C   0  0  0  0  0  0  0  0  0  0  0  0
    1.2480   67.8810   67.1830 S   0  0  0  0  0  3  0  0  0  0  0  0
    1.8510   66.5810   66.3440 O   0  0  0  0  0  1  0  0  0  0  0  0
    2.6360   68.9720   67.5580 C   0  0  0  0  0  0  0  0  0  0  0  0
    3.6450   69.1520   66.6050 C   0  0  0  0  0  0  0  0  0  0  0  0
    4.7250   69.9940   66.8790 C   0  0  0  0  0  0  0  0  0  0  0  0
    4.8030   70.6520   68.1050 C   0  0  0  0  0  0  0  0  0  0  0  0
    3.8050   70.4680   69.0610 C   0  0  0  0  0  0  0  0  0  0  0  0
    2.7240   69.6270   68.7900 C   0  0  0  0  0  0  0  0  0  0  0  0
    1.9128   66.4735   71.1145 H   0  0  0  0  0  0  0  0  0  0  0  0
    2.3138   61.1244   72.7937 H   0  0  0  0  0  0  0  0  0  0  0  0
    3.0518   58.8593   72.0727 H   0  0  0  0  0  0  0  0  0  0  0  0
    3.6603   58.4382   69.6927 H   0  0  0  0  0  0  0  0  0  0  0  0
    3.5300   60.2923   68.0349 H   0  0  0  0  0  0  0  0  0  0  0  0
    2.7941   62.5612   68.7490 H   0  0  0  0  0  0  0  0  0  0  0  0
    1.0552   64.1925   74.2079 H   0  0  0  0  0  0  0  0  0  0  0  0
   -0.0929   63.0861   76.1183 H   0  0  0  0  0  0  0  0  0  0  0  0
   -1.7310   61.2525   75.7041 H   0  0  0  0  0  0  0  0  0  0  0  0
   -2.2114   60.5259   73.3689 H   0  0  0  0  0  0  0  0  0  0  0  0
   -1.0687   61.6293   71.4536 H   0  0  0  0  0  0  0  0  0  0  0  0
    2.4890   65.8489   68.6442 H   0  0  0  0  0  0  0  0  0  0  0  0
    0.7738   65.2054   68.6979 H   0  0  0  0  0  0  0  0  0  0  0  0
   -0.1423   67.3017   69.0795 H   0  0  0  0  0  0  0  0  0  0  0  0
    1.4474   68.0062   69.5846 H   0  0  0  0  0  0  0  0  0  0  0  0
    3.5873   68.6295   65.6387 H   0  0  0  0  0  0  0  0  0  0  0  0
    5.5145   70.1379   66.1267 H   0  0  0  0  0  0  0  0  0  0  0  0
    5.6527   71.3171   68.3186 H   0  0  0  0  0  0  0  0  0  0  0  0
    3.8693   70.9858   70.0294 H   0  0  0  0  0  0  0  0  0  0  0  0
    1.9400   69.4795   69.5473 H   0  0  0  0  0  0  0  0  0  0  0  0
  2  1  2  0
  3  2  1  0
  4  3  1  0
  5  4  1  0
  6  5  2  0
  7  5  1  0
  7  2  1  0
  8  3  1  0
  9  8  2  0
 10  9  1  0
 11 10  2  0
 12 11  1  0
 13 12  2  0
 13  8  1  0
 14  4  1  0
 15 14  2  0
 16 15  1  0
 17 16  2  0
 18 17  1  0
 19 14  1  0
 19 18  2  0
 20  7  1  0
 21 20  1  0
 22 21  1  0
 22 23  1  6
 24 22  1  0
 25 24  2  0
 26 25  1  0
 27 26  2  0
 28 27  1  0
 29 28  2  0
 29 24  1  0
  7 30  1  0
  9 31  1  0
 10 32  1  0
 11 33  1  0
 12 34  1  0
 13 35  1  0
 15 36  1  0
 16 37  1  0
 17 38  1  0
 18 39  1  0
 19 40  1  0
 20 41  1  0
 20 42  1  0
 21 43  1  0
 21 44  1  0
 25 45  1  0
 26 46  1  0
 27 47  1  0
 28 48  1  0
 29 49  1  0
M  CHG  2  22   1  23  -1
M  END
>  <score>  (7) 
-9.405

$$$$
=
     RDKit          3D

 49 52  0  0  0  0  0  0  0  0999 V2000
    4.0070   64.1430   70.6470 O   0  0  0  0  0  0  0  0  0  0  0  0
    2.8890   63.8940   71.0750 C   0  0  0  0  0  0  0  0  0  0  0  0
    2.3420   62.6680   71.4810 N   0  0  0  0  0  0  0  0  0  0  0  0
    1.0270   62.8630   71.9830 N   0  0  0  0  0  0  0  0  0  0  0  0
    0.6310   64.1930   71.7860 C   0  0  0  0  0  0  0  0  0  0  0  0
   -0.4030   64.7560   72.1210 O   0  0  0  0  0  0  0  0  0  0  0  0
    1.7850   64.9180   71.1500 C   0  0  0  0  0  0  0  0  0  0  0  0
    2.7670   61.4360   70.8870 C   0  0  0  0  0  0  0  0  0  0  0  0
    2.8820   60.2620   71.6500 C   0  0  0  0  0  0  0  0  0  0  0  0
    3.3030   59.0620   71.0680 C   0  0  0  0  0  0  0  0  0  0  0  0
    3.6160   59.0140   69.7140 C   0  0  0  0  0  0  0  0  0  0  0  0
    3.5080   60.1650   68.9410 C   0  0  0  0  0  0  0  0  0  0  0  0
    3.0870   61.3660   69.5240 C   0  0  0  0  0  0  0  0  0  0  0  0
    0.4920   62.0880   73.0610 C   0  0  0  0  0  0  0  0  0  0  0  0
   -0.6140   61.2430   72.8740 C   0  0  0  0  0  0  0  0  0  0  0  0
   -1.1380   60.4950   73.9330 C   0  0  0  0  0  0  0  0  0  0  0  0
   -0.5650   60.5790   75.1980 C   0  0  0  0  0  0  0  0  0  0  0  0
    0.5300   61.4110   75.4040 C   0  0  0  0  0  0  0  0  0  0  0  0
    1.0550   62.1590   74.3440 C   0  0  0  0  0  0  0  0  0  0  0  0
    1.4740   65.4500   69.7470 C   0  0  0  0  0  0  0  0  0  0  0  0
    1.6050   66.9680   69.6070 C   0  0  0  0  0  0  0  0  0  0  0  0
    0.4630   67.6230   68.3380 S   0  0  0  0  0  3  0  0  0  0  0  0
   -0.4790   66.3520   67.8350 O   0  0  0  0  0  1  0  0  0  0  0  0
    1.7020   67.9150   67.0590 C   0  0  0  0  0  0  0  0  0  0  0  0
    2.4880   69.0720   67.1150 C   0  0  0  0  0  0  0  0  0  0  0  0
    3.4520   69.3130   66.1340 C   0  0  0  0  0  0  0  0  0  0  0  0
    3.6300   68.4040   65.0930 C   0  0  0  0  0  0  0  0  0  0  0  0
    2.8430   67.2540   65.0280 C   0  0  0  0  0  0  0  0  0  0  0  0
    1.8790   67.0110   66.0070 C   0  0  0  0  0  0  0  0  0  0  0  0
    2.0450   65.8075   71.7427 H   0  0  0  0  0  0  0  0  0  0  0  0
    2.6371   60.2870   72.7221 H   0  0  0  0  0  0  0  0  0  0  0  0
    3.3867   58.1538   71.6829 H   0  0  0  0  0  0  0  0  0  0  0  0
    3.9474   58.0701   69.2565 H   0  0  0  0  0  0  0  0  0  0  0  0
    3.7539   60.1316   67.8694 H   0  0  0  0  0  0  0  0  0  0  0  0
    3.0059   62.2698   68.9023 H   0  0  0  0  0  0  0  0  0  0  0  0
   -1.0756   61.1683   71.8783 H   0  0  0  0  0  0  0  0  0  0  0  0
   -2.0049   59.8389   73.7655 H   0  0  0  0  0  0  0  0  0  0  0  0
   -0.9762   59.9901   76.0312 H   0  0  0  0  0  0  0  0  0  0  0  0
    0.9849   61.4815   76.4030 H   0  0  0  0  0  0  0  0  0  0  0  0
    1.9223   62.8125   74.5195 H   0  0  0  0  0  0  0  0  0  0  0  0
    2.1687   64.9772   69.0372 H   0  0  0  0  0  0  0  0  0  0  0  0
    0.4216   65.2040   69.5425 H   0  0  0  0  0  0  0  0  0  0  0  0
    1.3726   67.4378   70.5741 H   0  0  0  0  0  0  0  0  0  0  0  0
    2.6350   67.1992   69.2977 H   0  0  0  0  0  0  0  0  0  0  0  0
    2.3459   69.7929   67.9336 H   0  0  0  0  0  0  0  0  0  0  0  0
    4.0712   70.2209   66.1830 H   0  0  0  0  0  0  0  0  0  0  0  0
    4.3915   68.5933   64.3221 H   0  0  0  0  0  0  0  0  0  0  0  0
    2.9825   66.5383   64.2044 H   0  0  0  0  0  0  0  0  0  0  0  0
    1.2565   66.1058   65.9511 H   0  0  0  0  0  0  0  0  0  0  0  0
  2  1  2  0
  3  2  1  0
  4  3  1  0
  5  4  1  0
  6  5  2  0
  7  5  1  0
  7  2  1  0
  8  3  1  0
  9  8  2  0
 10  9  1  0
 11 10  2  0
 12 11  1  0
 13 12  2  0
 13  8  1  0
 14  4  1  0
 15 14  2  0
 16 15  1  0
 17 16  2  0
 18 17  1  0
 19 14  1  0
 19 18  2  0
 20  7  1  0
 21 20  1  0
 22 21  1  0
 22 23  1  6
 24 22  1  0
 25 24  2  0
 26 25  1  0
 27 26  2  0
 28 27  1  0
 29 28  2  0
 29 24  1  0
  7 30  1  0
  9 31  1  0
 10 32  1  0
 11 33  1  0
 12 34  1  0
 13 35  1  0
 15 36  1  0
 16 37  1  0
 17 38  1  0
 18 39  1  0
 19 40  1  0
 20 41  1  0
 20 42  1  0
 21 43  1  0
 21 44  1  0
 25 45  1  0
 26 46  1  0
 27 47  1  0
 28 48  1  0
 29 49  1  0
M  CHG  2  22   1  23  -1
M  END
>  <score>  (8) 
-9.19

$$$$
=
     RDKit          3D

 49 52  0  0  0  0  0  0  0  0999 V2000
    2.7090   60.4630   74.3800 O   0  0  0  0  0  0  0  0  0  0  0  0
    2.5640   59.3320   73.9370 C   0  0  0  0  0  0  0  0  0  0  0  0
    2.3760   58.1220   74.6220 N   0  0  0  0  0  0  0  0  0  0  0  0
    2.1750   57.0640   73.6960 N   0  0  0  0  0  0  0  0  0  0  0  0
    2.3660   57.5290   72.3870 C   0  0  0  0  0  0  0  0  0  0  0  0
    2.2370   56.9370   71.3230 O   0  0  0  0  0  0  0  0  0  0  0  0
    2.6730   58.9990   72.4710 C   0  0  0  0  0  0  0  0  0  0  0  0
    2.9400   57.9140   75.9220 C   0  0  0  0  0  0  0  0  0  0  0  0
    2.2940   58.3830   77.0780 C   0  0  0  0  0  0  0  0  0  0  0  0
    2.8490   58.1840   78.3460 C   0  0  0  0  0  0  0  0  0  0  0  0
    4.0600   57.5110   78.4800 C   0  0  0  0  0  0  0  0  0  0  0  0
    4.7140   57.0380   77.3480 C   0  0  0  0  0  0  0  0  0  0  0  0
    4.1580   57.2390   76.0800 C   0  0  0  0  0  0  0  0  0  0  0  0
    1.3010   55.9620   73.9640 C   0  0  0  0  0  0  0  0  0  0  0  0
    1.7930   54.6530   74.0810 C   0  0  0  0  0  0  0  0  0  0  0  0
    0.9330   53.5790   74.3350 C   0  0  0  0  0  0  0  0  0  0  0  0
   -0.4340   53.7970   74.4770 C   0  0  0  0  0  0  0  0  0  0  0  0
   -0.9400   55.0880   74.3630 C   0  0  0  0  0  0  0  0  0  0  0  0
   -0.0800   56.1610   74.1090 C   0  0  0  0  0  0  0  0  0  0  0  0
    4.0710   59.3610   71.9570 C   0  0  0  0  0  0  0  0  0  0  0  0
    4.0730   60.2670   70.7260 C   0  0  0  0  0  0  0  0  0  0  0  0
    4.6970   61.9390   71.1270 S   0  0  0  0  0  3  0  0  0  0  0  0
    5.1240   61.9220   72.7310 O   0  0  0  0  0  1  0  0  0  0  0  0
    3.1160   62.8000   71.0000 C   0  0  0  0  0  0  0  0  0  0  0  0
    3.0890   64.1250   70.5500 C   0  0  0  0  0  0  0  0  0  0  0  0
    1.8750   64.8050   70.4440 C   0  0  0  0  0  0  0  0  0  0  0  0
    0.6850   64.1660   70.7910 C   0  0  0  0  0  0  0  0  0  0  0  0
    0.7080   62.8490   71.2480 C   0  0  0  0  0  0  0  0  0  0  0  0
    1.9210   62.1670   71.3550 C   0  0  0  0  0  0  0  0  0  0  0  0
    1.9783   59.5677   71.8355 H   0  0  0  0  0  0  0  0  0  0  0  0
    1.3360   58.9154   76.9842 H   0  0  0  0  0  0  0  0  0  0  0  0
    2.3278   58.5599   79.2388 H   0  0  0  0  0  0  0  0  0  0  0  0
    4.4976   57.3541   79.4770 H   0  0  0  0  0  0  0  0  0  0  0  0
    5.6706   56.5046   77.4495 H   0  0  0  0  0  0  0  0  0  0  0  0
    4.6858   56.8608   75.1920 H   0  0  0  0  0  0  0  0  0  0  0  0
    2.8718   54.4684   73.9713 H   0  0  0  0  0  0  0  0  0  0  0  0
    1.3383   52.5602   74.4226 H   0  0  0  0  0  0  0  0  0  0  0  0
   -1.1107   52.9534   74.6782 H   0  0  0  0  0  0  0  0  0  0  0  0
   -2.0200   55.2652   74.4730 H   0  0  0  0  0  0  0  0  0  0  0  0
   -0.4928   57.1768   74.0215 H   0  0  0  0  0  0  0  0  0  0  0  0
    4.6124   59.8756   72.7645 H   0  0  0  0  0  0  0  0  0  0  0  0
    4.5498   58.4178   71.6550 H   0  0  0  0  0  0  0  0  0  0  0  0
    4.7172   59.8204   69.9543 H   0  0  0  0  0  0  0  0  0  0  0  0
    3.0383   60.3617   70.3648 H   0  0  0  0  0  0  0  0  0  0  0  0
    4.0271   64.6316   70.2792 H   0  0  0  0  0  0  0  0  0  0  0  0
    1.8567   65.8452   70.0867 H   0  0  0  0  0  0  0  0  0  0  0  0
   -0.2721   64.7012   70.7041 H   0  0  0  0  0  0  0  0  0  0  0  0
   -0.2309   62.3469   71.5245 H   0  0  0  0  0  0  0  0  0  0  0  0
    1.9369   61.1292   71.7194 H   0  0  0  0  0  0  0  0  0  0  0  0
  2  1  2  0
  3  2  1  0
  4  3  1  0
  5  4  1  0
  6  5  2  0
  7  5  1  0
  7  2  1  0
  8  3  1  0
  9  8  2  0
 10  9  1  0
 11 10  2  0
 12 11  1  0
 13 12  2  0
 13  8  1  0
 14  4  1  0
 15 14  2  0
 16 15  1  0
 17 16  2  0
 18 17  1  0
 19 14  1  0
 19 18  2  0
 20  7  1  0
 21 20  1  0
 22 21  1  0
 22 23  1  1
 24 22  1  0
 25 24  2  0
 26 25  1  0
 27 26  2  0
 28 27  1  0
 29 28  2  0
 29 24  1  0
  7 30  1  0
  9 31  1  0
 10 32  1  0
 11 33  1  0
 12 34  1  0
 13 35  1  0
 15 36  1  0
 16 37  1  0
 17 38  1  0
 18 39  1  0
 19 40  1  0
 20 41  1  0
 20 42  1  0
 21 43  1  0
 21 44  1  0
 25 45  1  0
 26 46  1  0
 27 47  1  0
 28 48  1  0
 29 49  1  0
M  CHG  2  22   1  23  -1
M  END
>  <score>  (9) 
-9.111

$$$$
