=
     RDKit          3D

 51 53  0  0  0  0  0  0  0  0999 V2000
    0.1840   66.4110   70.0610 C   0  0  0  0  0  0  0  0  0  0  0  0
   -0.7360   66.0190   68.8960 C   0  0  0  0  0  0  0  0  0  0  0  0
   -0.9270   67.1660   67.9130 C   0  0  0  0  0  0  0  0  0  0  0  0
    0.4200   67.6280   67.4090 N   0  0  0  0  0  4  0  0  0  0  0  0
    1.3170   68.0810   68.5350 C   0  0  0  0  0  0  0  0  0  0  0  0
    1.5200   66.9370   69.5170 C   0  0  0  0  0  0  0  0  0  0  0  0
    0.3970   65.2330   71.0260 C   0  0  0  0  0  0  0  0  0  0  0  0
    0.1080   64.0100   70.3440 O   0  0  0  0  0  0  0  0  0  0  0  0
    3.0850   61.1870   70.7760 C   0  0  0  0  0  0  0  0  0  0  0  0
    2.1120   61.3420   71.7680 C   0  0  0  0  0  0  0  0  0  0  0  0
    1.1100   62.2980   71.6110 C   0  0  0  0  0  0  0  0  0  0  0  0
    1.1190   63.0750   70.4650 C   0  0  0  0  0  0  0  0  0  0  0  0
    2.0460   62.9620   69.4910 N   0  0  0  0  0  0  0  0  0  0  0  0
    3.0090   62.0190   69.6660 C   0  0  0  0  0  0  0  0  0  0  0  0
    4.1520   60.1810   70.9610 C   0  0  0  0  0  0  0  0  0  0  0  0
    5.3340   60.5020   70.9400 O   0  0  0  0  0  0  0  0  0  0  0  0
    3.8810   57.9100   70.1520 N   0  0  0  0  0  0  0  0  0  0  0  0
    3.8470   58.7280   71.1530 C   0  0  0  0  0  0  0  0  0  0  0  0
    3.5570   56.6300   70.6130 O   0  0  0  0  0  0  0  0  0  0  0  0
    0.3100   68.6920   66.3350 C   0  0  0  0  0  0  0  0  0  0  0  0
    1.5290   68.7760   65.4530 C   0  0  0  0  0  0  0  0  0  0  0  0
    2.7900   69.0600   66.0000 C   0  0  0  0  0  0  0  0  0  0  0  0
    3.9160   69.1530   65.1770 C   0  0  0  0  0  0  0  0  0  0  0  0
    3.7990   68.9630   63.7970 C   0  0  0  0  0  0  0  0  0  0  0  0
    2.5480   68.6760   63.2450 C   0  0  0  0  0  0  0  0  0  0  0  0
    1.4200   68.5810   64.0660 C   0  0  0  0  0  0  0  0  0  0  0  0
    4.9560   69.0610   62.9540 C   0  0  0  0  0  0  0  0  0  0  0  0
    5.8920   69.1300   62.2740 N   0  0  0  0  0  0  0  0  0  0  0  0
   -0.3005   67.2143   70.6355 H   0  0  0  0  0  0  0  0  0  0  0  0
   -0.2919   65.1648   68.3639 H   0  0  0  0  0  0  0  0  0  0  0  0
   -1.7206   65.7586   69.3117 H   0  0  0  0  0  0  0  0  0  0  0  0
   -1.5380   66.8238   67.0647 H   0  0  0  0  0  0  0  0  0  0  0  0
   -1.4350   68.0007   68.4183 H   0  0  0  0  0  0  0  0  0  0  0  0
    0.8572   66.8051   66.9703 H   0  0  0  0  0  0  0  0  0  0  0  0
    2.2904   68.3897   68.1261 H   0  0  0  0  0  0  0  0  0  0  0  0
    0.8501   68.9305   69.0550 H   0  0  0  0  0  0  0  0  0  0  0  0
    2.0441   66.1166   69.0050 H   0  0  0  0  0  0  0  0  0  0  0  0
    2.1107   67.3140   70.3649 H   0  0  0  0  0  0  0  0  0  0  0  0
    1.4414   65.2241   71.3712 H   0  0  0  0  0  0  0  0  0  0  0  0
   -0.2709   65.3398   71.8935 H   0  0  0  0  0  0  0  0  0  0  0  0
    2.1372   60.7117   72.6692 H   0  0  0  0  0  0  0  0  0  0  0  0
    0.3324   62.4317   72.3775 H   0  0  0  0  0  0  0  0  0  0  0  0
    3.7732   61.9080   68.8826 H   0  0  0  0  0  0  0  0  0  0  0  0
    3.5916   58.3526   72.1549 H   0  0  0  0  0  0  0  0  0  0  0  0
    3.5326   55.8679   69.9816 H   0  0  0  0  0  0  0  0  0  0  0  0
   -0.5620   68.4632   65.7047 H   0  0  0  0  0  0  0  0  0  0  0  0
    0.2093   69.6613   66.8453 H   0  0  0  0  0  0  0  0  0  0  0  0
    2.8930   69.2106   67.0848 H   0  0  0  0  0  0  0  0  0  0  0  0
    4.8989   69.3768   65.6173 H   0  0  0  0  0  0  0  0  0  0  0  0
    2.4500   68.5241   62.1600 H   0  0  0  0  0  0  0  0  0  0  0  0
    0.4398   68.3518   63.6224 H   0  0  0  0  0  0  0  0  0  0  0  0
  2  1  1  0
  3  2  1  0
  4  3  1  0
  5  4  1  0
  6  5  1  0
  6  1  1  0
  7  1  1  0
  8  7  1  0
 10  9  2  0
 11 10  1  0
 12  8  1  0
 12 11  2  0
 13 12  1  0
 14 13  2  0
 14  9  1  0
 15  9  1  0
 16 15  2  0
 18 17  2  0
 18 15  1  0
 19 17  1  0
 20  4  1  0
 21 20  1  0
 22 21  2  0
 23 22  1  0
 24 23  2  0
 25 24  1  0
 26 25  2  0
 26 21  1  0
 27 24  1  0
 28 27  3  0
  1 29  1  0
  2 30  1  0
  2 31  1  0
  3 32  1  0
  3 33  1  0
  4 34  1  0
  5 35  1  0
  5 36  1  0
  6 37  1  0
  6 38  1  0
  7 39  1  0
  7 40  1  0
 10 41  1  0
 11 42  1  0
 14 43  1  0
 18 44  1  0
 19 45  1  0
 20 46  1  0
 20 47  1  0
 22 48  1  0
 23 49  1  0
 25 50  1  0
 26 51  1  0
M  CHG  1   4   1
M  END
>  <score>  (1) 
-9.86

$$$$
=
     RDKit          3D

 51 53  0  0  0  0  0  0  0  0999 V2000
    0.0940   66.1810   70.1360 C   0  0  0  0  0  0  0  0  0  0  0  0
   -0.6590   66.3020   68.8030 C   0  0  0  0  0  0  0  0  0  0  0  0
   -0.3740   67.6270   68.1100 C   0  0  0  0  0  0  0  0  0  0  0  0
    1.1150   67.7820   67.9090 N   0  0  0  0  0  4  0  0  0  0  0  0
    1.8670   67.7330   69.2150 C   0  0  0  0  0  0  0  0  0  0  0  0
    1.5950   66.4070   69.9110 C   0  0  0  0  0  0  0  0  0  0  0  0
   -0.1740   64.8240   70.8080 C   0  0  0  0  0  0  0  0  0  0  0  0
    0.2010   63.7760   69.9110 O   0  0  0  0  0  0  0  0  0  0  0  0
    2.8230   61.0530   71.5620 C   0  0  0  0  0  0  0  0  0  0  0  0
    3.0860   61.6130   70.3090 C   0  0  0  0  0  0  0  0  0  0  0  0
    2.1940   62.5330   69.7610 C   0  0  0  0  0  0  0  0  0  0  0  0
    1.0600   62.8580   70.4860 C   0  0  0  0  0  0  0  0  0  0  0  0
    0.7670   62.3320   71.6930 N   0  0  0  0  0  0  0  0  0  0  0  0
    1.6550   61.4400   72.2070 C   0  0  0  0  0  0  0  0  0  0  0  0
    3.7680   60.0660   72.1250 C   0  0  0  0  0  0  0  0  0  0  0  0
    4.6200   60.4000   72.9410 O   0  0  0  0  0  0  0  0  0  0  0  0
    3.8490   58.3010   70.4630 N   0  0  0  0  0  0  0  0  0  0  0  0
    3.7540   58.6280   71.7100 C   0  0  0  0  0  0  0  0  0  0  0  0
    3.8080   56.9060   70.3640 O   0  0  0  0  0  0  0  0  0  0  0  0
    1.4730   69.0250   67.1180 C   0  0  0  0  0  0  0  0  0  0  0  0
    2.8080   69.6110   67.5010 C   0  0  0  0  0  0  0  0  0  0  0  0
    3.9300   69.4360   66.6750 C   0  0  0  0  0  0  0  0  0  0  0  0
    5.1700   69.9670   67.0410 C   0  0  0  0  0  0  0  0  0  0  0  0
    5.3060   70.6830   68.2340 C   0  0  0  0  0  0  0  0  0  0  0  0
    4.1930   70.8660   69.0590 C   0  0  0  0  0  0  0  0  0  0  0  0
    2.9510   70.3350   68.6960 C   0  0  0  0  0  0  0  0  0  0  0  0
    6.5800   71.2260   68.6090 C   0  0  0  0  0  0  0  0  0  0  0  0
    7.6070   71.6740   68.9090 N   0  0  0  0  0  0  0  0  0  0  0  0
   -0.2774   66.9583   70.8200 H   0  0  0  0  0  0  0  0  0  0  0  0
   -0.3466   65.4802   68.1419 H   0  0  0  0  0  0  0  0  0  0  0  0
   -1.7374   66.2520   69.0142 H   0  0  0  0  0  0  0  0  0  0  0  0
   -0.8794   67.6457   67.1332 H   0  0  0  0  0  0  0  0  0  0  0  0
   -0.7472   68.4534   68.7328 H   0  0  0  0  0  0  0  0  0  0  0  0
    1.4115   66.9729   67.3447 H   0  0  0  0  0  0  0  0  0  0  0  0
    2.9453   67.8300   69.0205 H   0  0  0  0  0  0  0  0  0  0  0  0
    1.5335   68.5594   69.8599 H   0  0  0  0  0  0  0  0  0  0  0  0
    1.9890   65.5903   69.2883 H   0  0  0  0  0  0  0  0  0  0  0  0
    2.0895   66.4278   70.8934 H   0  0  0  0  0  0  0  0  0  0  0  0
    0.4177   64.7473   71.7321 H   0  0  0  0  0  0  0  0  0  0  0  0
   -1.2426   64.7368   71.0540 H   0  0  0  0  0  0  0  0  0  0  0  0
    3.9940   61.3286   69.7571 H   0  0  0  0  0  0  0  0  0  0  0  0
    2.3858   62.9889   68.7785 H   0  0  0  0  0  0  0  0  0  0  0  0
    1.4359   60.9991   73.1907 H   0  0  0  0  0  0  0  0  0  0  0  0
    3.6620   57.8417   72.4737 H   0  0  0  0  0  0  0  0  0  0  0  0
    3.8684   56.4707   69.4769 H   0  0  0  0  0  0  0  0  0  0  0  0
    1.4999   68.7635   66.0499 H   0  0  0  0  0  0  0  0  0  0  0  0
    0.7082   69.7839   67.3396 H   0  0  0  0  0  0  0  0  0  0  0  0
    3.8323   68.8768   65.7328 H   0  0  0  0  0  0  0  0  0  0  0  0
    6.0427   69.8209   66.3875 H   0  0  0  0  0  0  0  0  0  0  0  0
    4.2941   71.4301   69.9979 H   0  0  0  0  0  0  0  0  0  0  0  0
    2.0802   70.4855   69.3510 H   0  0  0  0  0  0  0  0  0  0  0  0
  2  1  1  0
  3  2  1  0
  4  3  1  0
  5  4  1  0
  6  5  1  0
  6  1  1  0
  7  1  1  0
  8  7  1  0
 10  9  2  0
 11 10  1  0
 12  8  1  0
 12 11  2  0
 13 12  1  0
 14 13  2  0
 14  9  1  0
 15  9  1  0
 16 15  2  0
 18 17  2  0
 18 15  1  0
 19 17  1  0
 20  4  1  0
 21 20  1  0
 22 21  2  0
 23 22  1  0
 24 23  2  0
 25 24  1  0
 26 25  2  0
 26 21  1  0
 27 24  1  0
 28 27  3  0
  1 29  1  0
  2 30  1  0
  2 31  1  0
  3 32  1  0
  3 33  1  0
  4 34  1  0
  5 35  1  0
  5 36  1  0
  6 37  1  0
  6 38  1  0
  7 39  1  0
  7 40  1  0
 10 41  1  0
 11 42  1  0
 14 43  1  0
 18 44  1  0
 19 45  1  0
 20 46  1  0
 20 47  1  0
 22 48  1  0
 23 49  1  0
 25 50  1  0
 26 51  1  0
M  CHG  1   4   1
M  END
>  <score>  (2) 
-9.686

$$$$
=
     RDKit          3D

 51 53  0  0  0  0  0  0  0  0999 V2000
    0.2720   66.4880   69.8680 C   0  0  0  0  0  0  0  0  0  0  0  0
   -0.8060   66.0450   68.8690 C   0  0  0  0  0  0  0  0  0  0  0  0
   -1.2650   67.1950   67.9830 C   0  0  0  0  0  0  0  0  0  0  0  0
   -0.0740   67.7880   67.2680 N   0  0  0  0  0  4  0  0  0  0  0  0
    0.9700   68.2900   68.2350 C   0  0  0  0  0  0  0  0  0  0  0  0
    1.4400   67.1440   69.1180 C   0  0  0  0  0  0  0  0  0  0  0  0
    0.7520   65.3100   70.7320 C   0  0  0  0  0  0  0  0  0  0  0  0
    0.5260   64.0880   70.0250 O   0  0  0  0  0  0  0  0  0  0  0  0
    3.3610   61.2140   70.8670 C   0  0  0  0  0  0  0  0  0  0  0  0
    3.5740   62.1300   69.8330 C   0  0  0  0  0  0  0  0  0  0  0  0
    2.6090   63.0980   69.5580 C   0  0  0  0  0  0  0  0  0  0  0  0
    1.4570   63.1130   70.3260 C   0  0  0  0  0  0  0  0  0  0  0  0
    1.2120   62.2390   71.3250 N   0  0  0  0  0  0  0  0  0  0  0  0
    2.1700   61.3080   71.5750 C   0  0  0  0  0  0  0  0  0  0  0  0
    4.3840   60.1810   71.1380 C   0  0  0  0  0  0  0  0  0  0  0  0
    5.5750   60.4660   71.1770 O   0  0  0  0  0  0  0  0  0  0  0  0
    3.7600   57.9770   70.3400 N   0  0  0  0  0  0  0  0  0  0  0  0
    4.0230   58.7430   71.3470 C   0  0  0  0  0  0  0  0  0  0  0  0
    3.4570   56.6980   70.8210 O   0  0  0  0  0  0  0  0  0  0  0  0
   -0.4620   68.8640   66.2740 C   0  0  0  0  0  0  0  0  0  0  0  0
    0.3590   68.8340   65.0110 C   0  0  0  0  0  0  0  0  0  0  0  0
    1.7600   68.7650   65.0700 C   0  0  0  0  0  0  0  0  0  0  0  0
    2.5200   68.7530   63.8960 C   0  0  0  0  0  0  0  0  0  0  0  0
    1.8920   68.8080   62.6490 C   0  0  0  0  0  0  0  0  0  0  0  0
    0.4980   68.8720   62.5820 C   0  0  0  0  0  0  0  0  0  0  0  0
   -0.2650   68.8830   63.7540 C   0  0  0  0  0  0  0  0  0  0  0  0
    2.6740   68.7980   61.4460 C   0  0  0  0  0  0  0  0  0  0  0  0
    3.3090   68.7990   60.4760 N   0  0  0  0  0  0  0  0  0  0  0  0
   -0.1665   67.2303   70.5512 H   0  0  0  0  0  0  0  0  0  0  0  0
   -0.3950   65.2476   68.2324 H   0  0  0  0  0  0  0  0  0  0  0  0
   -1.6748   65.6871   69.4409 H   0  0  0  0  0  0  0  0  0  0  0  0
   -1.9879   66.8214   67.2429 H   0  0  0  0  0  0  0  0  0  0  0  0
   -1.7413   67.9680   68.6040 H   0  0  0  0  0  0  0  0  0  0  0  0
    0.3435   67.0184   66.7255 H   0  0  0  0  0  0  0  0  0  0  0  0
    1.8252   68.6940   67.6734 H   0  0  0  0  0  0  0  0  0  0  0  0
    0.5356   69.0813   68.8636 H   0  0  0  0  0  0  0  0  0  0  0  0
    1.9294   66.3865   68.4882 H   0  0  0  0  0  0  0  0  0  0  0  0
    2.1402   67.5503   69.8627 H   0  0  0  0  0  0  0  0  0  0  0  0
    1.8261   65.4208   70.9418 H   0  0  0  0  0  0  0  0  0  0  0  0
    0.1967   65.2967   71.6815 H   0  0  0  0  0  0  0  0  0  0  0  0
    4.4988   62.0874   69.2389 H   0  0  0  0  0  0  0  0  0  0  0  0
    2.7590   63.8310   68.7516 H   0  0  0  0  0  0  0  0  0  0  0  0
    1.9915   60.5865   72.3859 H   0  0  0  0  0  0  0  0  0  0  0  0
    3.9813   58.3346   72.3675 H   0  0  0  0  0  0  0  0  0  0  0  0
    3.2280   55.9724   70.1877 H   0  0  0  0  0  0  0  0  0  0  0  0
   -1.5199   68.7263   66.0059 H   0  0  0  0  0  0  0  0  0  0  0  0
   -0.2795   69.8349   66.7577 H   0  0  0  0  0  0  0  0  0  0  0  0
    2.2637   68.7200   66.0469 H   0  0  0  0  0  0  0  0  0  0  0  0
    3.6172   68.7000   63.9546 H   0  0  0  0  0  0  0  0  0  0  0  0
   -0.0017   68.9139   61.6030 H   0  0  0  0  0  0  0  0  0  0  0  0
   -1.3622   68.9304   63.6907 H   0  0  0  0  0  0  0  0  0  0  0  0
  2  1  1  0
  3  2  1  0
  4  3  1  0
  5  4  1  0
  6  5  1  0
  6  1  1  0
  7  1  1  0
  8  7  1  0
 10  9  2  0
 11 10  1  0
 12  8  1  0
 12 11  2  0
 13 12  1  0
 14 13  2  0
 14  9  1  0
 15  9  1  0
 16 15  2  0
 18 17  2  0
 18 15  1  0
 19 17  1  0
 20  4  1  0
 21 20  1  0
 22 21  2  0
 23 22  1  0
 24 23  2  0
 25 24  1  0
 26 25  2  0
 26 21  1  0
 27 24  1  0
 28 27  3  0
  1 29  1  0
  2 30  1  0
  2 31  1  0
  3 32  1  0
  3 33  1  0
  4 34  1  0
  5 35  1  0
  5 36  1  0
  6 37  1  0
  6 38  1  0
  7 39  1  0
  7 40  1  0
 10 41  1  0
 11 42  1  0
 14 43  1  0
 18 44  1  0
 19 45  1  0
 20 46  1  0
 20 47  1  0
 22 48  1  0
 23 49  1  0
 25 50  1  0
 26 51  1  0
M  CHG  1   4   1
M  END
>  <score>  (3) 
-9.658

$$$$
=
     RDKit          3D

 51 53  0  0  0  0  0  0  0  0999 V2000
    0.1930   66.4430   69.9740 C   0  0  0  0  0  0  0  0  0  0  0  0
   -0.7180   66.0800   68.7930 C   0  0  0  0  0  0  0  0  0  0  0  0
   -0.8720   67.2390   67.8190 C   0  0  0  0  0  0  0  0  0  0  0  0
    0.4910   67.6790   67.3380 N   0  0  0  0  0  4  0  0  0  0  0  0
    1.3800   68.1030   68.4810 C   0  0  0  0  0  0  0  0  0  0  0  0
    1.5460   66.9470   69.4550 C   0  0  0  0  0  0  0  0  0  0  0  0
    0.3690   65.2520   70.9320 C   0  0  0  0  0  0  0  0  0  0  0  0
    0.0790   64.0410   70.2300 O   0  0  0  0  0  0  0  0  0  0  0  0
    2.9420   61.1270   70.8050 C   0  0  0  0  0  0  0  0  0  0  0  0
    1.9120   61.2950   71.7350 C   0  0  0  0  0  0  0  0  0  0  0  0
    0.9490   62.2820   71.5300 C   0  0  0  0  0  0  0  0  0  0  0  0
    1.0530   63.0750   70.4000 C   0  0  0  0  0  0  0  0  0  0  0  0
    2.0380   62.9500   69.4850 N   0  0  0  0  0  0  0  0  0  0  0  0
    2.9610   61.9770   69.7070 C   0  0  0  0  0  0  0  0  0  0  0  0
    3.9660   60.0880   71.0410 C   0  0  0  0  0  0  0  0  0  0  0  0
    5.1180   60.2340   70.6500 O   0  0  0  0  0  0  0  0  0  0  0  0
    2.9560   57.8850   71.1440 N   0  0  0  0  0  0  0  0  0  0  0  0
    3.6460   58.8030   71.7390 C   0  0  0  0  0  0  0  0  0  0  0  0
    2.8070   56.8030   72.0190 O   0  0  0  0  0  0  0  0  0  0  0  0
    0.4180   68.7540   66.2730 C   0  0  0  0  0  0  0  0  0  0  0  0
    1.6640   68.8440   65.4300 C   0  0  0  0  0  0  0  0  0  0  0  0
    1.6060   68.6330   64.0430 C   0  0  0  0  0  0  0  0  0  0  0  0
    2.7670   68.7010   63.2660 C   0  0  0  0  0  0  0  0  0  0  0  0
    3.9990   68.9820   63.8620 C   0  0  0  0  0  0  0  0  0  0  0  0
    4.0640   69.1980   65.2410 C   0  0  0  0  0  0  0  0  0  0  0  0
    2.9060   69.1320   66.0210 C   0  0  0  0  0  0  0  0  0  0  0  0
    5.1890   69.0500   63.0630 C   0  0  0  0  0  0  0  0  0  0  0  0
    6.1480   69.1130   62.4140 N   0  0  0  0  0  0  0  0  0  0  0  0
   -0.2840   67.2508   70.5484 H   0  0  0  0  0  0  0  0  0  0  0  0
   -0.2835   65.2220   68.2591 H   0  0  0  0  0  0  0  0  0  0  0  0
   -1.7133   65.8354   69.1924 H   0  0  0  0  0  0  0  0  0  0  0  0
   -1.4777   66.9169   66.9591 H   0  0  0  0  0  0  0  0  0  0  0  0
   -1.3702   68.0789   68.3253 H   0  0  0  0  0  0  0  0  0  0  0  0
    0.9180   66.8519   66.8970 H   0  0  0  0  0  0  0  0  0  0  0  0
    2.3653   68.3958   68.0892 H   0  0  0  0  0  0  0  0  0  0  0  0
    0.9222   68.9566   69.0023 H   0  0  0  0  0  0  0  0  0  0  0  0
    2.0615   66.1210   68.9432 H   0  0  0  0  0  0  0  0  0  0  0  0
    2.1313   67.3047   70.3149 H   0  0  0  0  0  0  0  0  0  0  0  0
    1.4052   65.2253   71.3002 H   0  0  0  0  0  0  0  0  0  0  0  0
   -0.3160   65.3587   71.7861 H   0  0  0  0  0  0  0  0  0  0  0  0
    1.8615   60.6509   72.6252 H   0  0  0  0  0  0  0  0  0  0  0  0
    0.1279   62.4269   72.2475 H   0  0  0  0  0  0  0  0  0  0  0  0
    3.7713   61.8557   68.9731 H   0  0  0  0  0  0  0  0  0  0  0  0
    4.0008   58.6380   72.7670 H   0  0  0  0  0  0  0  0  0  0  0  0
    2.3025   56.0007   71.7327 H   0  0  0  0  0  0  0  0  0  0  0  0
   -0.4346   68.5347   65.6135 H   0  0  0  0  0  0  0  0  0  0  0  0
    0.3046   69.7180   66.7906 H   0  0  0  0  0  0  0  0  0  0  0  0
    0.6406   68.4126   63.5641 H   0  0  0  0  0  0  0  0  0  0  0  0
    2.7098   68.5324   62.1805 H   0  0  0  0  0  0  0  0  0  0  0  0
    5.0312   69.4211   65.7151 H   0  0  0  0  0  0  0  0  0  0  0  0
    2.9673   69.3068   67.1053 H   0  0  0  0  0  0  0  0  0  0  0  0
  2  1  1  0
  3  2  1  0
  4  3  1  0
  5  4  1  0
  6  5  1  0
  6  1  1  0
  7  1  1  0
  8  7  1  0
 10  9  2  0
 11 10  1  0
 12  8  1  0
 12 11  2  0
 13 12  1  0
 14 13  2  0
 14  9  1  0
 15  9  1  0
 16 15  2  0
 18 17  2  0
 18 15  1  0
 19 17  1  0
 20  4  1  0
 21 20  1  0
 22 21  2  0
 23 22  1  0
 24 23  2  0
 25 24  1  0
 26 25  2  0
 26 21  1  0
 27 24  1  0
 28 27  3  0
  1 29  1  0
  2 30  1  0
  2 31  1  0
  3 32  1  0
  3 33  1  0
  4 34  1  0
  5 35  1  0
  5 36  1  0
  6 37  1  0
  6 38  1  0
  7 39  1  0
  7 40  1  0
 10 41  1  0
 11 42  1  0
 14 43  1  0
 18 44  1  0
 19 45  1  0
 20 46  1  0
 20 47  1  0
 22 48  1  0
 23 49  1  0
 25 50  1  0
 26 51  1  0
M  CHG  1   4   1
M  END
>  <score>  (4) 
-9.427

$$$$
=
     RDKit          3D

 51 53  0  0  0  0  0  0  0  0999 V2000
    1.3350   64.2360   71.1370 C   0  0  0  0  0  0  0  0  0  0  0  0
    1.3430   63.1010   70.1040 C   0  0  0  0  0  0  0  0  0  0  0  0
    2.2380   61.9470   70.5360 C   0  0  0  0  0  0  0  0  0  0  0  0
    1.7950   61.4450   71.8900 N   0  0  0  0  0  4  0  0  0  0  0  0
    1.8440   62.5320   72.9360 C   0  0  0  0  0  0  0  0  0  0  0  0
    0.9460   63.6850   72.5160 C   0  0  0  0  0  0  0  0  0  0  0  0
    0.4010   65.3790   70.7060 C   0  0  0  0  0  0  0  0  0  0  0  0
    1.1820   66.4310   70.1340 O   0  0  0  0  0  0  0  0  0  0  0  0
   -0.4590   68.0870   66.7320 C   0  0  0  0  0  0  0  0  0  0  0  0
    0.7740   68.5390   67.2100 C   0  0  0  0  0  0  0  0  0  0  0  0
    1.3200   67.9710   68.3600 C   0  0  0  0  0  0  0  0  0  0  0  0
    0.6070   66.9710   68.9990 C   0  0  0  0  0  0  0  0  0  0  0  0
   -0.5890   66.5150   68.5740 N   0  0  0  0  0  0  0  0  0  0  0  0
   -1.0970   67.0820   67.4480 C   0  0  0  0  0  0  0  0  0  0  0  0
   -1.0360   68.7080   65.5200 C   0  0  0  0  0  0  0  0  0  0  0  0
   -2.1840   69.1360   65.5140 O   0  0  0  0  0  0  0  0  0  0  0  0
   -0.7930   68.4510   63.1200 N   0  0  0  0  0  0  0  0  0  0  0  0
   -0.2650   68.8170   64.2420 C   0  0  0  0  0  0  0  0  0  0  0  0
    0.1400   68.6590   62.0990 O   0  0  0  0  0  0  0  0  0  0  0  0
    2.5620   60.2180   72.3400 C   0  0  0  0  0  0  0  0  0  0  0  0
    1.6740   59.1140   72.8540 C   0  0  0  0  0  0  0  0  0  0  0  0
    0.4390   59.4110   73.4520 C   0  0  0  0  0  0  0  0  0  0  0  0
   -0.3760   58.3860   73.9420 C   0  0  0  0  0  0  0  0  0  0  0  0
    0.0290   57.0520   73.8400 C   0  0  0  0  0  0  0  0  0  0  0  0
    1.2560   56.7490   73.2420 C   0  0  0  0  0  0  0  0  0  0  0  0
    2.0730   57.7720   72.7500 C   0  0  0  0  0  0  0  0  0  0  0  0
   -0.8070   56.0020   74.3460 C   0  0  0  0  0  0  0  0  0  0  0  0
   -1.4790   55.1470   74.7480 N   0  0  0  0  0  0  0  0  0  0  0  0
    2.3492   64.6570   71.2023 H   0  0  0  0  0  0  0  0  0  0  0  0
    0.3162   62.7271   69.9784 H   0  0  0  0  0  0  0  0  0  0  0  0
    1.7368   63.5028   69.1588 H   0  0  0  0  0  0  0  0  0  0  0  0
    2.1653   61.1318   69.8011 H   0  0  0  0  0  0  0  0  0  0  0  0
    3.2799   62.2944   70.5969 H   0  0  0  0  0  0  0  0  0  0  0  0
    0.8120   61.1581   71.7794 H   0  0  0  0  0  0  0  0  0  0  0  0
    1.4966   62.1294   73.8989 H   0  0  0  0  0  0  0  0  0  0  0  0
    2.8779   62.8931   73.0394 H   0  0  0  0  0  0  0  0  0  0  0  0
   -0.0945   63.3304   72.4774 H   0  0  0  0  0  0  0  0  0  0  0  0
    1.0603   64.4939   73.2526 H   0  0  0  0  0  0  0  0  0  0  0  0
   -0.3173   65.0066   69.9608 H   0  0  0  0  0  0  0  0  0  0  0  0
   -0.1481   65.7585   71.5803 H   0  0  0  0  0  0  0  0  0  0  0  0
    1.3115   69.3397   66.6809 H   0  0  0  0  0  0  0  0  0  0  0  0
    2.2918   68.3085   68.7495 H   0  0  0  0  0  0  0  0  0  0  0  0
   -2.0706   66.7240   67.0822 H   0  0  0  0  0  0  0  0  0  0  0  0
    0.7613   69.2125   64.2574 H   0  0  0  0  0  0  0  0  0  0  0  0
   -0.0917   68.4336   61.1633 H   0  0  0  0  0  0  0  0  0  0  0  0
    3.1377   59.8334   71.4852 H   0  0  0  0  0  0  0  0  0  0  0  0
    3.2114   60.5273   73.1722 H   0  0  0  0  0  0  0  0  0  0  0  0
    0.1103   60.4574   73.5356 H   0  0  0  0  0  0  0  0  0  0  0  0
   -1.3409   58.6306   74.4102 H   0  0  0  0  0  0  0  0  0  0  0  0
    1.5802   55.7012   73.1581 H   0  0  0  0  0  0  0  0  0  0  0  0
    3.0351   57.5233   72.2782 H   0  0  0  0  0  0  0  0  0  0  0  0
  2  1  1  0
  3  2  1  0
  4  3  1  0
  5  4  1  0
  6  5  1  0
  6  1  1  0
  7  1  1  0
  8  7  1  0
 10  9  2  0
 11 10  1  0
 12  8  1  0
 12 11  2  0
 13 12  1  0
 14 13  2  0
 14  9  1  0
 15  9  1  0
 16 15  2  0
 18 17  2  0
 18 15  1  0
 19 17  1  0
 20  4  1  0
 21 20  1  0
 22 21  2  0
 23 22  1  0
 24 23  2  0
 25 24  1  0
 26 25  2  0
 26 21  1  0
 27 24  1  0
 28 27  3  0
  1 29  1  0
  2 30  1  0
  2 31  1  0
  3 32  1  0
  3 33  1  0
  4 34  1  0
  5 35  1  0
  5 36  1  0
  6 37  1  0
  6 38  1  0
  7 39  1  0
  7 40  1  0
 10 41  1  0
 11 42  1  0
 14 43  1  0
 18 44  1  0
 19 45  1  0
 20 46  1  0
 20 47  1  0
 22 48  1  0
 23 49  1  0
 25 50  1  0
 26 51  1  0
M  CHG  1   4   1
M  END
>  <score>  (5) 
-9.074

$$$$
=
     RDKit          3D

 51 53  0  0  0  0  0  0  0  0999 V2000
    1.2260   63.9430   70.6420 C   0  0  0  0  0  0  0  0  0  0  0  0
    0.9480   63.0260   71.8410 C   0  0  0  0  0  0  0  0  0  0  0  0
    1.7830   61.7540   71.7870 C   0  0  0  0  0  0  0  0  0  0  0  0
    3.2480   62.1150   71.7080 N   0  0  0  0  0  4  0  0  0  0  0  0
    3.5530   62.9630   70.4980 C   0  0  0  0  0  0  0  0  0  0  0  0
    2.7290   64.2400   70.5490 C   0  0  0  0  0  0  0  0  0  0  0  0
    0.4030   65.2390   70.7270 C   0  0  0  0  0  0  0  0  0  0  0  0
    1.2020   66.3320   70.2640 O   0  0  0  0  0  0  0  0  0  0  0  0
   -0.4380   68.1210   66.9300 C   0  0  0  0  0  0  0  0  0  0  0  0
   -1.1670   67.1680   67.6480 C   0  0  0  0  0  0  0  0  0  0  0  0
   -0.6040   66.5710   68.7740 C   0  0  0  0  0  0  0  0  0  0  0  0
    0.6780   66.9430   69.1410 C   0  0  0  0  0  0  0  0  0  0  0  0
    1.4160   67.8510   68.4680 N   0  0  0  0  0  0  0  0  0  0  0  0
    0.8420   68.4210   67.3760 C   0  0  0  0  0  0  0  0  0  0  0  0
   -1.0410   68.7350   65.7270 C   0  0  0  0  0  0  0  0  0  0  0  0
   -2.1830   69.1770   65.7480 O   0  0  0  0  0  0  0  0  0  0  0  0
   -0.8910   68.5170   63.3160 N   0  0  0  0  0  0  0  0  0  0  0  0
   -0.3040   68.8210   64.4270 C   0  0  0  0  0  0  0  0  0  0  0  0
    0.0230   68.6850   62.2700 O   0  0  0  0  0  0  0  0  0  0  0  0
    4.1550   60.9020   71.7700 C   0  0  0  0  0  0  0  0  0  0  0  0
    3.4600   59.6630   72.2720 C   0  0  0  0  0  0  0  0  0  0  0  0
    3.2110   59.4880   73.6430 C   0  0  0  0  0  0  0  0  0  0  0  0
    2.5810   58.3290   74.1080 C   0  0  0  0  0  0  0  0  0  0  0  0
    2.1870   57.3320   73.2110 C   0  0  0  0  0  0  0  0  0  0  0  0
    2.4270   57.5010   71.8450 C   0  0  0  0  0  0  0  0  0  0  0  0
    3.0570   58.6580   71.3770 C   0  0  0  0  0  0  0  0  0  0  0  0
    1.5420   56.1440   73.6900 C   0  0  0  0  0  0  0  0  0  0  0  0
    1.0160   55.1890   74.0840 N   0  0  0  0  0  0  0  0  0  0  0  0
    0.9149   63.4235   69.7237 H   0  0  0  0  0  0  0  0  0  0  0  0
    1.1866   63.5692   72.7673 H   0  0  0  0  0  0  0  0  0  0  0  0
   -0.1135   62.7390   71.8125 H   0  0  0  0  0  0  0  0  0  0  0  0
    1.6009   61.1573   72.6930 H   0  0  0  0  0  0  0  0  0  0  0  0
    1.5017   61.1686   70.8992 H   0  0  0  0  0  0  0  0  0  0  0  0
    3.4480   62.6792   72.5462 H   0  0  0  0  0  0  0  0  0  0  0  0
    4.6230   63.2179   70.4899 H   0  0  0  0  0  0  0  0  0  0  0  0
    3.3011   62.4020   69.5860 H   0  0  0  0  0  0  0  0  0  0  0  0
    3.0319   64.8247   71.4301 H   0  0  0  0  0  0  0  0  0  0  0  0
    2.9105   64.8022   69.6211 H   0  0  0  0  0  0  0  0  0  0  0  0
   -0.4951   65.1470   70.0985 H   0  0  0  0  0  0  0  0  0  0  0  0
    0.0990   65.4174   71.7690 H   0  0  0  0  0  0  0  0  0  0  0  0
   -2.1813   66.8906   67.3250 H   0  0  0  0  0  0  0  0  0  0  0  0
   -1.1634   65.8238   69.3560 H   0  0  0  0  0  0  0  0  0  0  0  0
    1.4258   69.1636   66.8124 H   0  0  0  0  0  0  0  0  0  0  0  0
    0.7469   69.1459   64.4169 H   0  0  0  0  0  0  0  0  0  0  0  0
   -0.2518   68.4973   61.3376 H   0  0  0  0  0  0  0  0  0  0  0  0
    4.5393   60.7014   70.7590 H   0  0  0  0  0  0  0  0  0  0  0  0
    4.9612   61.1341   72.4814 H   0  0  0  0  0  0  0  0  0  0  0  0
    3.5137   60.2684   74.3567 H   0  0  0  0  0  0  0  0  0  0  0  0
    2.3947   58.2015   75.1846 H   0  0  0  0  0  0  0  0  0  0  0  0
    2.1188   56.7200   71.1344 H   0  0  0  0  0  0  0  0  0  0  0  0
    3.2386   58.7824   70.2992 H   0  0  0  0  0  0  0  0  0  0  0  0
  2  1  1  0
  3  2  1  0
  4  3  1  0
  5  4  1  0
  6  5  1  0
  6  1  1  0
  7  1  1  0
  8  7  1  0
 10  9  2  0
 11 10  1  0
 12  8  1  0
 12 11  2  0
 13 12  1  0
 14 13  2  0
 14  9  1  0
 15  9  1  0
 16 15  2  0
 18 17  2  0
 18 15  1  0
 19 17  1  0
 20  4  1  0
 21 20  1  0
 22 21  2  0
 23 22  1  0
 24 23  2  0
 25 24  1  0
 26 25  2  0
 26 21  1  0
 27 24  1  0
 28 27  3  0
  1 29  1  0
  2 30  1  0
  2 31  1  0
  3 32  1  0
  3 33  1  0
  4 34  1  0
  5 35  1  0
  5 36  1  0
  6 37  1  0
  6 38  1  0
  7 39  1  0
  7 40  1  0
 10 41  1  0
 11 42  1  0
 14 43  1  0
 18 44  1  0
 19 45  1  0
 20 46  1  0
 20 47  1  0
 22 48  1  0
 23 49  1  0
 25 50  1  0
 26 51  1  0
M  CHG  1   4   1
M  END
>  <score>  (6) 
-8.644

$$$$
=
     RDKit          3D

 51 53  0  0  0  0  0  0  0  0999 V2000
    3.3740   61.8750   70.2380 C   0  0  0  0  0  0  0  0  0  0  0  0
    1.9520   61.9590   69.6680 C   0  0  0  0  0  0  0  0  0  0  0  0
    1.1670   63.1170   70.2700 C   0  0  0  0  0  0  0  0  0  0  0  0
    1.9200   64.4070   70.0440 N   0  0  0  0  0  4  0  0  0  0  0  0
    3.2980   64.3680   70.6560 C   0  0  0  0  0  0  0  0  0  0  0  0
    4.0920   63.2190   70.0530 C   0  0  0  0  0  0  0  0  0  0  0  0
    4.1670   60.7240   69.5960 C   0  0  0  0  0  0  0  0  0  0  0  0
    4.9070   60.0420   70.6120 O   0  0  0  0  0  0  0  0  0  0  0  0
    2.4710   57.9360   73.1880 C   0  0  0  0  0  0  0  0  0  0  0  0
    2.4440   57.6670   71.8170 C   0  0  0  0  0  0  0  0  0  0  0  0
    3.2730   58.3840   70.9560 C   0  0  0  0  0  0  0  0  0  0  0  0
    4.0990   59.3550   71.4970 C   0  0  0  0  0  0  0  0  0  0  0  0
    4.1450   59.6490   72.8130 N   0  0  0  0  0  0  0  0  0  0  0  0
    3.3300   58.9330   73.6320 C   0  0  0  0  0  0  0  0  0  0  0  0
    1.5750   57.1800   74.0900 C   0  0  0  0  0  0  0  0  0  0  0  0
    0.5360   57.6760   74.5110 O   0  0  0  0  0  0  0  0  0  0  0  0
    1.9220   54.8090   73.7190 N   0  0  0  0  0  0  0  0  0  0  0  0
    1.9020   55.7950   74.5540 C   0  0  0  0  0  0  0  0  0  0  0  0
    2.2520   53.6420   74.4170 O   0  0  0  0  0  0  0  0  0  0  0  0
    1.1480   65.6250   70.5110 C   0  0  0  0  0  0  0  0  0  0  0  0
    0.4950   66.3850   69.3860 C   0  0  0  0  0  0  0  0  0  0  0  0
   -0.8400   66.1320   69.0310 C   0  0  0  0  0  0  0  0  0  0  0  0
   -1.4380   66.8270   67.9760 C   0  0  0  0  0  0  0  0  0  0  0  0
   -0.7130   67.7850   67.2620 C   0  0  0  0  0  0  0  0  0  0  0  0
    0.6140   68.0460   67.6120 C   0  0  0  0  0  0  0  0  0  0  0  0
    1.2150   67.3530   68.6670 C   0  0  0  0  0  0  0  0  0  0  0  0
   -1.3290   68.4960   66.1780 C   0  0  0  0  0  0  0  0  0  0  0  0
   -1.8230   69.0630   65.2960 N   0  0  0  0  0  0  0  0  0  0  0  0
    3.3071   61.6595   71.3146 H   0  0  0  0  0  0  0  0  0  0  0  0
    2.0131   62.0989   68.5786 H   0  0  0  0  0  0  0  0  0  0  0  0
    1.4282   61.0248   69.9188 H   0  0  0  0  0  0  0  0  0  0  0  0
    0.1795   63.1798   69.7894 H   0  0  0  0  0  0  0  0  0  0  0  0
    1.0392   62.9513   71.3499 H   0  0  0  0  0  0  0  0  0  0  0  0
    2.0312   64.4970   69.0240 H   0  0  0  0  0  0  0  0  0  0  0  0
    3.8157   65.3170   70.4529 H   0  0  0  0  0  0  0  0  0  0  0  0
    3.2110   64.2212   71.7427 H   0  0  0  0  0  0  0  0  0  0  0  0
    4.2283   63.4054   68.9775 H   0  0  0  0  0  0  0  0  0  0  0  0
    5.0618   63.1639   70.5692 H   0  0  0  0  0  0  0  0  0  0  0  0
    3.4715   60.0220   69.1129 H   0  0  0  0  0  0  0  0  0  0  0  0
    4.8583   61.1262   68.8408 H   0  0  0  0  0  0  0  0  0  0  0  0
    1.7715   56.8928   71.4191 H   0  0  0  0  0  0  0  0  0  0  0  0
    3.2712   58.1837   69.8744 H   0  0  0  0  0  0  0  0  0  0  0  0
    3.3521   59.1561   74.7089 H   0  0  0  0  0  0  0  0  0  0  0  0
    2.1273   55.6149   75.6155 H   0  0  0  0  0  0  0  0  0  0  0  0
    2.3150   52.7788   73.9364 H   0  0  0  0  0  0  0  0  0  0  0  0
    0.3652   65.2952   71.2099 H   0  0  0  0  0  0  0  0  0  0  0  0
    1.8698   66.3049   70.9872 H   0  0  0  0  0  0  0  0  0  0  0  0
   -1.4197   65.3809   69.5876 H   0  0  0  0  0  0  0  0  0  0  0  0
   -2.4840   66.6190   67.7065 H   0  0  0  0  0  0  0  0  0  0  0  0
    1.1888   68.8004   67.0548 H   0  0  0  0  0  0  0  0  0  0  0  0
    2.2598   67.5675   68.9360 H   0  0  0  0  0  0  0  0  0  0  0  0
  2  1  1  0
  3  2  1  0
  4  3  1  0
  5  4  1  0
  6  5  1  0
  6  1  1  0
  7  1  1  0
  8  7  1  0
 10  9  2  0
 11 10  1  0
 12  8  1  0
 12 11  2  0
 13 12  1  0
 14 13  2  0
 14  9  1  0
 15  9  1  0
 16 15  2  0
 18 17  2  0
 18 15  1  0
 19 17  1  0
 20  4  1  0
 21 20  1  0
 22 21  2  0
 23 22  1  0
 24 23  2  0
 25 24  1  0
 26 25  2  0
 26 21  1  0
 27 24  1  0
 28 27  3  0
  1 29  1  0
  2 30  1  0
  2 31  1  0
  3 32  1  0
  3 33  1  0
  4 34  1  0
  5 35  1  0
  5 36  1  0
  6 37  1  0
  6 38  1  0
  7 39  1  0
  7 40  1  0
 10 41  1  0
 11 42  1  0
 14 43  1  0
 18 44  1  0
 19 45  1  0
 20 46  1  0
 20 47  1  0
 22 48  1  0
 23 49  1  0
 25 50  1  0
 26 51  1  0
M  CHG  1   4   1
M  END
>  <score>  (7) 
-8.549

$$$$
=
     RDKit          3D

 51 53  0  0  0  0  0  0  0  0999 V2000
    1.5740   64.1430   71.3080 C   0  0  0  0  0  0  0  0  0  0  0  0
    2.7640   63.9970   70.3490 C   0  0  0  0  0  0  0  0  0  0  0  0
    3.7520   62.9420   70.8270 C   0  0  0  0  0  0  0  0  0  0  0  0
    3.0350   61.6240   71.0080 N   0  0  0  0  0  4  0  0  0  0  0  0
    1.9030   61.7310   71.9990 C   0  0  0  0  0  0  0  0  0  0  0  0
    0.9060   62.7780   71.5240 C   0  0  0  0  0  0  0  0  0  0  0  0
    0.5670   65.1850   70.7960 C   0  0  0  0  0  0  0  0  0  0  0  0
    1.2800   66.2870   70.2300 O   0  0  0  0  0  0  0  0  0  0  0  0
   -0.5160   67.9210   66.8960 C   0  0  0  0  0  0  0  0  0  0  0  0
    0.7350   68.3800   67.3170 C   0  0  0  0  0  0  0  0  0  0  0  0
    1.3330   67.8200   68.4450 C   0  0  0  0  0  0  0  0  0  0  0  0
    0.6540   66.8200   69.1190 C   0  0  0  0  0  0  0  0  0  0  0  0
   -0.5580   66.3570   68.7480 N   0  0  0  0  0  0  0  0  0  0  0  0
   -1.1180   66.9170   67.6430 C   0  0  0  0  0  0  0  0  0  0  0  0
   -1.1480   68.5350   65.7080 C   0  0  0  0  0  0  0  0  0  0  0  0
   -0.5150   68.7070   64.6730 O   0  0  0  0  0  0  0  0  0  0  0  0
   -3.5220   68.1980   66.0710 N   0  0  0  0  0  0  0  0  0  0  0  0
   -2.5710   68.9990   65.7180 C   0  0  0  0  0  0  0  0  0  0  0  0
   -4.7370   68.8870   65.9880 O   0  0  0  0  0  0  0  0  0  0  0  0
    3.9750   60.4910   71.3710 C   0  0  0  0  0  0  0  0  0  0  0  0
    3.2720   59.3080   71.9860 C   0  0  0  0  0  0  0  0  0  0  0  0
    2.8900   59.3260   73.3360 C   0  0  0  0  0  0  0  0  0  0  0  0
    2.2530   58.2200   73.9080 C   0  0  0  0  0  0  0  0  0  0  0  0
    1.9870   57.0840   73.1390 C   0  0  0  0  0  0  0  0  0  0  0  0
    2.3600   57.0600   71.7930 C   0  0  0  0  0  0  0  0  0  0  0  0
    2.9970   58.1650   71.2180 C   0  0  0  0  0  0  0  0  0  0  0  0
    1.3350   55.9500   73.7290 C   0  0  0  0  0  0  0  0  0  0  0  0
    0.8010   55.0400   74.2080 N   0  0  0  0  0  0  0  0  0  0  0  0
    1.9478   64.5062   72.2767 H   0  0  0  0  0  0  0  0  0  0  0  0
    2.3876   63.7081   69.3566 H   0  0  0  0  0  0  0  0  0  0  0  0
    3.2894   64.9625   70.3081 H   0  0  0  0  0  0  0  0  0  0  0  0
    4.5521   62.8246   70.0813 H   0  0  0  0  0  0  0  0  0  0  0  0
    4.1879   63.2566   71.7867 H   0  0  0  0  0  0  0  0  0  0  0  0
    2.6287   61.3926   70.0903 H   0  0  0  0  0  0  0  0  0  0  0  0
    1.3984   60.7574   72.0849 H   0  0  0  0  0  0  0  0  0  0  0  0
    2.3031   62.0262   72.9802 H   0  0  0  0  0  0  0  0  0  0  0  0
    0.4636   62.4436   70.5740 H   0  0  0  0  0  0  0  0  0  0  0  0
    0.1347   62.8932   72.2998 H   0  0  0  0  0  0  0  0  0  0  0  0
   -0.0762   64.7294   70.0287 H   0  0  0  0  0  0  0  0  0  0  0  0
   -0.0576   65.5373   71.6301 H   0  0  0  0  0  0  0  0  0  0  0  0
    1.2457   69.1798   66.7607 H   0  0  0  0  0  0  0  0  0  0  0  0
    2.3191   68.1641   68.7904 H   0  0  0  0  0  0  0  0  0  0  0  0
   -2.1054   66.5537   67.3220 H   0  0  0  0  0  0  0  0  0  0  0  0
   -2.8096   70.0313   65.4222 H   0  0  0  0  0  0  0  0  0  0  0  0
   -5.5828   68.4290   66.2226 H   0  0  0  0  0  0  0  0  0  0  0  0
    4.4878   60.1563   70.4572 H   0  0  0  0  0  0  0  0  0  0  0  0
    4.6786   60.8790   72.1222 H   0  0  0  0  0  0  0  0  0  0  0  0
    3.0930   60.2165   73.9490 H   0  0  0  0  0  0  0  0  0  0  0  0
    1.9601   58.2445   74.9680 H   0  0  0  0  0  0  0  0  0  0  0  0
    2.1521   56.1687   71.1827 H   0  0  0  0  0  0  0  0  0  0  0  0
    3.2845   58.1382   70.1566 H   0  0  0  0  0  0  0  0  0  0  0  0
  2  1  1  0
  3  2  1  0
  4  3  1  0
  5  4  1  0
  6  5  1  0
  6  1  1  0
  7  1  1  0
  8  7  1  0
 10  9  2  0
 11 10  1  0
 12  8  1  0
 12 11  2  0
 13 12  1  0
 14 13  2  0
 14  9  1  0
 15  9  1  0
 16 15  2  0
 18 17  2  0
 18 15  1  0
 19 17  1  0
 20  4  1  0
 21 20  1  0
 22 21  2  0
 23 22  1  0
 24 23  2  0
 25 24  1  0
 26 25  2  0
 26 21  1  0
 27 24  1  0
 28 27  3  0
  1 29  1  0
  2 30  1  0
  2 31  1  0
  3 32  1  0
  3 33  1  0
  4 34  1  0
  5 35  1  0
  5 36  1  0
  6 37  1  0
  6 38  1  0
  7 39  1  0
  7 40  1  0
 10 41  1  0
 11 42  1  0
 14 43  1  0
 18 44  1  0
 19 45  1  0
 20 46  1  0
 20 47  1  0
 22 48  1  0
 23 49  1  0
 25 50  1  0
 26 51  1  0
M  CHG  1   4   1
M  END
>  <score>  (8) 
-8.439

$$$$
=
     RDKit          3D

 51 53  0  0  0  0  0  0  0  0999 V2000
    2.0570   62.2130   71.4780 C   0  0  0  0  0  0  0  0  0  0  0  0
    0.6180   62.5260   71.9110 C   0  0  0  0  0  0  0  0  0  0  0  0
    0.3750   64.0240   72.0340 C   0  0  0  0  0  0  0  0  0  0  0  0
    0.7060   64.6970   70.7220 N   0  0  0  0  0  4  0  0  0  0  0  0
    2.1370   64.4570   70.3120 C   0  0  0  0  0  0  0  0  0  0  0  0
    2.3850   62.9620   70.1790 C   0  0  0  0  0  0  0  0  0  0  0  0
    2.2780   60.6990   71.3230 C   0  0  0  0  0  0  0  0  0  0  0  0
    2.6930   60.1570   72.5790 O   0  0  0  0  0  0  0  0  0  0  0  0
    0.5490   56.7940   73.6310 C   0  0  0  0  0  0  0  0  0  0  0  0
   -0.0060   58.0650   73.8030 C   0  0  0  0  0  0  0  0  0  0  0  0
    0.7270   59.1940   73.4430 C   0  0  0  0  0  0  0  0  0  0  0  0
    1.9990   59.0140   72.9260 C   0  0  0  0  0  0  0  0  0  0  0  0
    2.5720   57.8040   72.7550 N   0  0  0  0  0  0  0  0  0  0  0  0
    1.8340   56.7190   73.1100 C   0  0  0  0  0  0  0  0  0  0  0  0
   -0.2320   55.6040   74.0320 C   0  0  0  0  0  0  0  0  0  0  0  0
   -1.3930   55.7070   74.4090 O   0  0  0  0  0  0  0  0  0  0  0  0
   -0.4010   53.1850   74.0890 N   0  0  0  0  0  0  0  0  0  0  0  0
    0.3590   54.2290   74.0260 C   0  0  0  0  0  0  0  0  0  0  0  0
    0.4080   52.0440   74.0670 O   0  0  0  0  0  0  0  0  0  0  0  0
    0.3780   66.1770   70.7250 C   0  0  0  0  0  0  0  0  0  0  0  0
    0.2140   66.7540   69.3420 C   0  0  0  0  0  0  0  0  0  0  0  0
   -0.9650   66.5380   68.6130 C   0  0  0  0  0  0  0  0  0  0  0  0
   -1.1080   67.0610   67.3240 C   0  0  0  0  0  0  0  0  0  0  0  0
   -0.0770   67.8080   66.7470 C   0  0  0  0  0  0  0  0  0  0  0  0
    1.0990   68.0310   67.4690 C   0  0  0  0  0  0  0  0  0  0  0  0
    1.2440   67.5100   68.7590 C   0  0  0  0  0  0  0  0  0  0  0  0
   -0.2250   68.3420   65.4240 C   0  0  0  0  0  0  0  0  0  0  0  0
   -0.3370   68.7800   64.3570 N   0  0  0  0  0  0  0  0  0  0  0  0
    2.7433   62.5592   72.2648 H   0  0  0  0  0  0  0  0  0  0  0  0
   -0.0759   62.1134   71.1638 H   0  0  0  0  0  0  0  0  0  0  0  0
    0.4530   62.0717   72.8991 H   0  0  0  0  0  0  0  0  0  0  0  0
   -0.6811   64.2050   72.2829 H   0  0  0  0  0  0  0  0  0  0  0  0
    1.0145   64.4353   72.8289 H   0  0  0  0  0  0  0  0  0  0  0  0
    0.0991   64.2577   70.0152 H   0  0  0  0  0  0  0  0  0  0  0  0
    2.3284   64.9473   69.3461 H   0  0  0  0  0  0  0  0  0  0  0  0
    2.8108   64.8729   71.0756 H   0  0  0  0  0  0  0  0  0  0  0  0
    1.7527   62.5666   69.3704 H   0  0  0  0  0  0  0  0  0  0  0  0
    3.4515   62.8104   69.9564 H   0  0  0  0  0  0  0  0  0  0  0  0
    1.3396   60.2200   71.0069 H   0  0  0  0  0  0  0  0  0  0  0  0
    3.0525   60.5128   70.5644 H   0  0  0  0  0  0  0  0  0  0  0  0
   -1.0177   58.1737   74.2210 H   0  0  0  0  0  0  0  0  0  0  0  0
    0.3059   60.2027   73.5663 H   0  0  0  0  0  0  0  0  0  0  0  0
    2.2811   55.7228   72.9767 H   0  0  0  0  0  0  0  0  0  0  0  0
    1.4505   54.1055   73.9674 H   0  0  0  0  0  0  0  0  0  0  0  0
   -0.0036   51.1445   74.1078 H   0  0  0  0  0  0  0  0  0  0  0  0
   -0.5607   66.3255   71.2789 H   0  0  0  0  0  0  0  0  0  0  0  0
    1.2244   66.6974   71.1970 H   0  0  0  0  0  0  0  0  0  0  0  0
   -1.7830   65.9529   69.0586 H   0  0  0  0  0  0  0  0  0  0  0  0
   -2.0364   66.8837   66.7613 H   0  0  0  0  0  0  0  0  0  0  0  0
    1.9138   68.6186   67.0208 H   0  0  0  0  0  0  0  0  0  0  0  0
    2.1716   67.6938   69.3210 H   0  0  0  0  0  0  0  0  0  0  0  0
  2  1  1  0
  3  2  1  0
  4  3  1  0
  5  4  1  0
  6  5  1  0
  6  1  1  0
  7  1  1  0
  8  7  1  0
 10  9  2  0
 11 10  1  0
 12  8  1  0
 12 11  2  0
 13 12  1  0
 14 13  2  0
 14  9  1  0
 15  9  1  0
 16 15  2  0
 18 17  2  0
 18 15  1  0
 19 17  1  0
 20  4  1  0
 21 20  1  0
 22 21  2  0
 23 22  1  0
 24 23  2  0
 25 24  1  0
 26 25  2  0
 26 21  1  0
 27 24  1  0
 28 27  3  0
  1 29  1  0
  2 30  1  0
  2 31  1  0
  3 32  1  0
  3 33  1  0
  4 34  1  0
  5 35  1  0
  5 36  1  0
  6 37  1  0
  6 38  1  0
  7 39  1  0
  7 40  1  0
 10 41  1  0
 11 42  1  0
 14 43  1  0
 18 44  1  0
 19 45  1  0
 20 46  1  0
 20 47  1  0
 22 48  1  0
 23 49  1  0
 25 50  1  0
 26 51  1  0
M  CHG  1   4   1
M  END
>  <score>  (9) 
-8.352

$$$$
