=
     RDKit          3D

 18 19  0  0  0  0  0  0  0  0999 V2000
    3.7790   70.7150   69.9070 O   0  0  0  0  0  0  0  0  0  0  0  0
    4.1620   70.4470   68.7780 C   0  0  0  0  0  0  0  0  0  0  0  0
    5.5620   70.7020   68.3780 C   0  0  0  0  0  0  0  0  0  0  0  0
    5.9970   70.4150   67.1470 C   0  0  0  0  0  0  0  0  0  0  0  0
    5.1220   69.8340   66.1270 C   0  0  0  0  0  0  0  0  0  0  0  0
    3.7770   69.5530   66.3970 C   0  0  0  0  0  0  0  0  0  0  0  0
    3.2260   69.8430   67.7360 C   0  0  0  0  0  0  0  0  0  0  0  0
    2.0570   69.6100   68.0100 O   0  0  0  0  0  0  0  0  0  0  0  0
    2.9490   68.9970   65.4120 C   0  0  0  0  0  0  0  0  0  0  0  0
    3.4670   68.7220   64.1470 C   0  0  0  0  0  0  0  0  0  0  0  0
    4.8040   68.9990   63.8680 C   0  0  0  0  0  0  0  0  0  0  0  0
    5.6280   69.5530   64.8510 C   0  0  0  0  0  0  0  0  0  0  0  0
    6.2602   71.1369   69.1083 H   0  0  0  0  0  0  0  0  0  0  0  0
    7.0468   70.6221   66.8920 H   0  0  0  0  0  0  0  0  0  0  0  0
    1.8945   68.7785   65.6362 H   0  0  0  0  0  0  0  0  0  0  0  0
    2.8211   68.2869   63.3702 H   0  0  0  0  0  0  0  0  0  0  0  0
    5.2121   68.7807   62.8701 H   0  0  0  0  0  0  0  0  0  0  0  0
    6.6816   69.7701   64.6215 H   0  0  0  0  0  0  0  0  0  0  0  0
  2  1  2  0
  3  2  1  0
  4  3  2  0
  5  4  1  0
  6  5  2  0
  7  6  1  0
  7  2  1  0
  8  7  2  0
  9  6  1  0
 10  9  2  0
 11 10  1  0
 12 11  2  0
 12  5  1  0
  3 13  1  0
  4 14  1  0
  9 15  1  0
 10 16  1  0
 11 17  1  0
 12 18  1  0
M  END
>  <score>  (1) 
-8.507

$$$$
=
     RDKit          3D

 18 19  0  0  0  0  0  0  0  0999 V2000
    1.9500   68.5820   64.8390 O   0  0  0  0  0  0  0  0  0  0  0  0
    2.9680   69.0060   65.3650 C   0  0  0  0  0  0  0  0  0  0  0  0
    4.2200   69.1290   64.5890 C   0  0  0  0  0  0  0  0  0  0  0  0
    5.3420   69.5910   65.1490 C   0  0  0  0  0  0  0  0  0  0  0  0
    5.4020   70.0010   66.5540 C   0  0  0  0  0  0  0  0  0  0  0  0
    4.2740   69.9250   67.3820 C   0  0  0  0  0  0  0  0  0  0  0  0
    2.9980   69.4250   66.8310 C   0  0  0  0  0  0  0  0  0  0  0  0
    1.9930   69.3450   67.5230 O   0  0  0  0  0  0  0  0  0  0  0  0
    4.3430   70.3190   68.7240 C   0  0  0  0  0  0  0  0  0  0  0  0
    5.5470   70.7920   69.2460 C   0  0  0  0  0  0  0  0  0  0  0  0
    6.6750   70.8710   68.4310 C   0  0  0  0  0  0  0  0  0  0  0  0
    6.6040   70.4770   67.0920 C   0  0  0  0  0  0  0  0  0  0  0  0
    4.2284   68.8343   63.5292 H   0  0  0  0  0  0  0  0  0  0  0  0
    6.2511   69.6659   64.5342 H   0  0  0  0  0  0  0  0  0  0  0  0
    3.4508   70.2557   69.3643 H   0  0  0  0  0  0  0  0  0  0  0  0
    5.6062   71.1023   70.2997 H   0  0  0  0  0  0  0  0  0  0  0  0
    7.6240   71.2446   68.8430 H   0  0  0  0  0  0  0  0  0  0  0  0
    7.4991   70.5413   66.4559 H   0  0  0  0  0  0  0  0  0  0  0  0
  2  1  2  0
  3  2  1  0
  4  3  2  0
  5  4  1  0
  6  5  2  0
  7  6  1  0
  7  2  1  0
  8  7  2  0
  9  6  1  0
 10  9  2  0
 11 10  1  0
 12 11  2  0
 12  5  1  0
  3 13  1  0
  4 14  1  0
  9 15  1  0
 10 16  1  0
 11 17  1  0
 12 18  1  0
M  END
>  <score>  (2) 
-8.479

$$$$
=
     RDKit          3D

 18 19  0  0  0  0  0  0  0  0999 V2000
    6.7270   71.3750   69.1680 O   0  0  0  0  0  0  0  0  0  0  0  0
    5.9590   70.8510   68.3750 C   0  0  0  0  0  0  0  0  0  0  0  0
    6.4050   70.5150   67.0070 C   0  0  0  0  0  0  0  0  0  0  0  0
    5.5770   69.9420   66.1270 C   0  0  0  0  0  0  0  0  0  0  0  0
    4.1900   69.6130   66.4610 C   0  0  0  0  0  0  0  0  0  0  0  0
    3.6620   69.8890   67.7290 C   0  0  0  0  0  0  0  0  0  0  0  0
    4.5190   70.5210   68.7530 C   0  0  0  0  0  0  0  0  0  0  0  0
    4.0940   70.7760   69.8710 O   0  0  0  0  0  0  0  0  0  0  0  0
    2.3330   69.5700   68.0370 C   0  0  0  0  0  0  0  0  0  0  0  0
    1.5230   68.9720   67.0720 C   0  0  0  0  0  0  0  0  0  0  0  0
    2.0380   68.6950   65.8070 C   0  0  0  0  0  0  0  0  0  0  0  0
    3.3650   69.0130   65.5010 C   0  0  0  0  0  0  0  0  0  0  0  0
    7.4388   70.7407   66.7064 H   0  0  0  0  0  0  0  0  0  0  0  0
    5.9504   69.7101   65.1186 H   0  0  0  0  0  0  0  0  0  0  0  0
    1.9299   69.7904   69.0364 H   0  0  0  0  0  0  0  0  0  0  0  0
    0.4790   68.7193   67.3090 H   0  0  0  0  0  0  0  0  0  0  0  0
    1.3981   68.2243   65.0461 H   0  0  0  0  0  0  0  0  0  0  0  0
    3.7635   68.7906   64.5001 H   0  0  0  0  0  0  0  0  0  0  0  0
  2  1  2  0
  3  2  1  0
  4  3  2  0
  5  4  1  0
  6  5  2  0
  7  6  1  0
  7  2  1  0
  8  7  2  0
  9  6  1  0
 10  9  2  0
 11 10  1  0
 12 11  2  0
 12  5  1  0
  3 13  1  0
  4 14  1  0
  9 15  1  0
 10 16  1  0
 11 17  1  0
 12 18  1  0
M  END
>  <score>  (3) 
-8.382

$$$$
=
     RDKit          3D

 18 19  0  0  0  0  0  0  0  0999 V2000
    1.4070   68.5160   65.4690 O   0  0  0  0  0  0  0  0  0  0  0  0
    2.2240   68.9980   66.2390 C   0  0  0  0  0  0  0  0  0  0  0  0
    1.8270   69.3840   67.6090 C   0  0  0  0  0  0  0  0  0  0  0  0
    2.7080   69.9140   68.4650 C   0  0  0  0  0  0  0  0  0  0  0  0
    4.1080   70.1410   68.1010 C   0  0  0  0  0  0  0  0  0  0  0  0
    4.5910   69.8130   66.8280 C   0  0  0  0  0  0  0  0  0  0  0  0
    3.6750   69.2240   65.8300 C   0  0  0  0  0  0  0  0  0  0  0  0
    4.0610   68.9240   64.7090 O   0  0  0  0  0  0  0  0  0  0  0  0
    5.9330   70.0350   66.4910 C   0  0  0  0  0  0  0  0  0  0  0  0
    6.8000   70.5910   67.4320 C   0  0  0  0  0  0  0  0  0  0  0  0
    6.3290   70.9210   68.7010 C   0  0  0  0  0  0  0  0  0  0  0  0
    4.9900   70.6990   69.0360 C   0  0  0  0  0  0  0  0  0  0  0  0
    0.7863   69.2325   67.9315 H   0  0  0  0  0  0  0  0  0  0  0  0
    2.3696   70.1882   69.4751 H   0  0  0  0  0  0  0  0  0  0  0  0
    6.3014   69.7719   65.4885 H   0  0  0  0  0  0  0  0  0  0  0  0
    7.8541   70.7686   67.1724 H   0  0  0  0  0  0  0  0  0  0  0  0
    7.0137   71.3582   69.4426 H   0  0  0  0  0  0  0  0  0  0  0  0
    4.6265   70.9640   70.0398 H   0  0  0  0  0  0  0  0  0  0  0  0
  2  1  2  0
  3  2  1  0
  4  3  2  0
  5  4  1  0
  6  5  2  0
  7  6  1  0
  7  2  1  0
  8  7  2  0
  9  6  1  0
 10  9  2  0
 11 10  1  0
 12 11  2  0
 12  5  1  0
  3 13  1  0
  4 14  1  0
  9 15  1  0
 10 16  1  0
 11 17  1  0
 12 18  1  0
M  END
>  <score>  (4) 
-8.359

$$$$
=
     RDKit          3D

 18 19  0  0  0  0  0  0  0  0999 V2000
    4.3970   70.6450   69.9090 O   0  0  0  0  0  0  0  0  0  0  0  0
    4.1330   70.2720   68.7760 C   0  0  0  0  0  0  0  0  0  0  0  0
    2.7730   69.8010   68.4380 C   0  0  0  0  0  0  0  0  0  0  0  0
    2.4670   69.3900   67.2040 C   0  0  0  0  0  0  0  0  0  0  0  0
    3.4500   69.3810   66.1180 C   0  0  0  0  0  0  0  0  0  0  0  0
    4.7690   69.8050   66.3280 C   0  0  0  0  0  0  0  0  0  0  0  0
    5.1790   70.2740   67.6670 C   0  0  0  0  0  0  0  0  0  0  0  0
    6.3210   70.6530   67.8880 O   0  0  0  0  0  0  0  0  0  0  0  0
    5.7010   69.7910   65.2820 C   0  0  0  0  0  0  0  0  0  0  0  0
    5.3160   69.3500   64.0170 C   0  0  0  0  0  0  0  0  0  0  0  0
    4.0060   68.9250   63.7980 C   0  0  0  0  0  0  0  0  0  0  0  0
    3.0780   68.9390   64.8430 C   0  0  0  0  0  0  0  0  0  0  0  0
    1.9975   69.7887   69.2180 H   0  0  0  0  0  0  0  0  0  0  0  0
    1.4426   69.0469   66.9967 H   0  0  0  0  0  0  0  0  0  0  0  0
    6.7334   70.1270   65.4585 H   0  0  0  0  0  0  0  0  0  0  0  0
    6.0443   69.3372   63.1928 H   0  0  0  0  0  0  0  0  0  0  0  0
    3.7020   68.5776   62.7995 H   0  0  0  0  0  0  0  0  0  0  0  0
    2.0473   68.6000   64.6621 H   0  0  0  0  0  0  0  0  0  0  0  0
  2  1  2  0
  3  2  1  0
  4  3  2  0
  5  4  1  0
  6  5  2  0
  7  6  1  0
  7  2  1  0
  8  7  2  0
  9  6  1  0
 10  9  2  0
 11 10  1  0
 12 11  2  0
 12  5  1  0
  3 13  1  0
  4 14  1  0
  9 15  1  0
 10 16  1  0
 11 17  1  0
 12 18  1  0
M  END
>  <score>  (5) 
-8.224

$$$$
=
     RDKit          3D

 18 19  0  0  0  0  0  0  0  0999 V2000
    3.2830   68.3600   62.5750 O   0  0  0  0  0  0  0  0  0  0  0  0
    3.4230   68.7080   63.7380 C   0  0  0  0  0  0  0  0  0  0  0  0
    2.3220   68.5390   64.7090 C   0  0  0  0  0  0  0  0  0  0  0  0
    2.4580   68.9140   65.9860 C   0  0  0  0  0  0  0  0  0  0  0  0
    3.6940   69.5090   66.4960 C   0  0  0  0  0  0  0  0  0  0  0  0
    4.8000   69.7160   65.6620 C   0  0  0  0  0  0  0  0  0  0  0  0
    4.7230   69.3260   64.2390 C   0  0  0  0  0  0  0  0  0  0  0  0
    5.6680   69.4900   63.4800 O   0  0  0  0  0  0  0  0  0  0  0  0
    5.9780   70.2870   66.1610 C   0  0  0  0  0  0  0  0  0  0  0  0
    6.0540   70.6560   67.5040 C   0  0  0  0  0  0  0  0  0  0  0  0
    4.9580   70.4550   68.3430 C   0  0  0  0  0  0  0  0  0  0  0  0
    3.7840   69.8850   67.8420 C   0  0  0  0  0  0  0  0  0  0  0  0
    1.3720   68.0962   64.3753 H   0  0  0  0  0  0  0  0  0  0  0  0
    1.6129   68.7704   66.6754 H   0  0  0  0  0  0  0  0  0  0  0  0
    6.8400   70.4438   65.4960 H   0  0  0  0  0  0  0  0  0  0  0  0
    6.9766   71.1047   67.9007 H   0  0  0  0  0  0  0  0  0  0  0  0
    5.0176   70.7459   69.4022 H   0  0  0  0  0  0  0  0  0  0  0  0
    2.9241   69.7306   68.5103 H   0  0  0  0  0  0  0  0  0  0  0  0
  2  1  2  0
  3  2  1  0
  4  3  2  0
  5  4  1  0
  6  5  2  0
  7  6  1  0
  7  2  1  0
  8  7  2  0
  9  6  1  0
 10  9  2  0
 11 10  1  0
 12 11  2  0
 12  5  1  0
  3 13  1  0
  4 14  1  0
  9 15  1  0
 10 16  1  0
 11 17  1  0
 12 18  1  0
M  END
>  <score>  (6) 
-8.139

$$$$
=
     RDKit          3D

 18 19  0  0  0  0  0  0  0  0999 V2000
    0.2160   67.9680   63.1440 O   0  0  0  0  0  0  0  0  0  0  0  0
    1.3270   68.3190   63.5140 C   0  0  0  0  0  0  0  0  0  0  0  0
    2.4410   68.4260   62.5480 C   0  0  0  0  0  0  0  0  0  0  0  0
    3.6620   68.8080   62.9360 C   0  0  0  0  0  0  0  0  0  0  0  0
    3.9690   69.1420   64.3290 C   0  0  0  0  0  0  0  0  0  0  0  0
    2.9880   69.0730   65.3260 C   0  0  0  0  0  0  0  0  0  0  0  0
    1.6160   68.6590   64.9720 C   0  0  0  0  0  0  0  0  0  0  0  0
    0.7330   68.5880   65.8150 O   0  0  0  0  0  0  0  0  0  0  0  0
    3.2950   69.3940   66.6550 C   0  0  0  0  0  0  0  0  0  0  0  0
    4.5900   69.7860   66.9930 C   0  0  0  0  0  0  0  0  0  0  0  0
    5.5730   69.8570   66.0070 C   0  0  0  0  0  0  0  0  0  0  0  0
    5.2660   69.5360   64.6820 C   0  0  0  0  0  0  0  0  0  0  0  0
    2.2618   68.1867   61.4894 H   0  0  0  0  0  0  0  0  0  0  0  0
    4.4626   68.8737   62.1845 H   0  0  0  0  0  0  0  0  0  0  0  0
    2.5164   69.3369   67.4299 H   0  0  0  0  0  0  0  0  0  0  0  0
    4.8352   70.0386   68.0351 H   0  0  0  0  0  0  0  0  0  0  0  0
    6.5944   70.1669   66.2730 H   0  0  0  0  0  0  0  0  0  0  0  0
    6.0484   69.5931   63.9109 H   0  0  0  0  0  0  0  0  0  0  0  0
  2  1  2  0
  3  2  1  0
  4  3  2  0
  5  4  1  0
  6  5  2  0
  7  6  1  0
  7  2  1  0
  8  7  2  0
  9  6  1  0
 10  9  2  0
 11 10  1  0
 12 11  2  0
 12  5  1  0
  3 13  1  0
  4 14  1  0
  9 15  1  0
 10 16  1  0
 11 17  1  0
 12 18  1  0
M  END
>  <score>  (7) 
-8.03

$$$$
=
     RDKit          3D

 18 19  0  0  0  0  0  0  0  0999 V2000
   -0.7810   67.8350   66.1230 O   0  0  0  0  0  0  0  0  0  0  0  0
    0.3640   68.2460   66.2410 C   0  0  0  0  0  0  0  0  0  0  0  0
    0.8550   68.7380   67.5460 C   0  0  0  0  0  0  0  0  0  0  0  0
    2.1040   69.1910   67.6920 C   0  0  0  0  0  0  0  0  0  0  0  0
    3.0560   69.2280   66.5800 C   0  0  0  0  0  0  0  0  0  0  0  0
    2.6960   68.7870   65.3000 C   0  0  0  0  0  0  0  0  0  0  0  0
    1.3320   68.2720   65.0630 C   0  0  0  0  0  0  0  0  0  0  0  0
    0.9810   67.8780   63.9600 O   0  0  0  0  0  0  0  0  0  0  0  0
    3.6150   68.8280   64.2430 C   0  0  0  0  0  0  0  0  0  0  0  0
    4.9030   69.3130   64.4640 C   0  0  0  0  0  0  0  0  0  0  0  0
    5.2720   69.7540   65.7340 C   0  0  0  0  0  0  0  0  0  0  0  0
    4.3530   69.7130   66.7870 C   0  0  0  0  0  0  0  0  0  0  0  0
    0.1791   68.7311   68.4138 H   0  0  0  0  0  0  0  0  0  0  0  0
    2.4277   69.5480   68.6808 H   0  0  0  0  0  0  0  0  0  0  0  0
    3.3210   68.4786   63.2422 H   0  0  0  0  0  0  0  0  0  0  0  0
    5.6276   69.3477   63.6371 H   0  0  0  0  0  0  0  0  0  0  0  0
    6.2890   70.1353   65.9082 H   0  0  0  0  0  0  0  0  0  0  0  0
    4.6513   70.0645   67.7857 H   0  0  0  0  0  0  0  0  0  0  0  0
  2  1  2  0
  3  2  1  0
  4  3  2  0
  5  4  1  0
  6  5  2  0
  7  6  1  0
  7  2  1  0
  8  7  2  0
  9  6  1  0
 10  9  2  0
 11 10  1  0
 12 11  2  0
 12  5  1  0
  3 13  1  0
  4 14  1  0
  9 15  1  0
 10 16  1  0
 11 17  1  0
 12 18  1  0
M  END
>  <score>  (8) 
-7.944

$$$$
=
     RDKit          3D

 18 19  0  0  0  0  0  0  0  0999 V2000
    6.9910   71.4240   69.0340 O   0  0  0  0  0  0  0  0  0  0  0  0
    5.9340   70.9490   68.6480 C   0  0  0  0  0  0  0  0  0  0  0  0
    4.7710   70.8650   69.5570 C   0  0  0  0  0  0  0  0  0  0  0  0
    3.6070   70.3470   69.1510 C   0  0  0  0  0  0  0  0  0  0  0  0
    3.4130   69.8350   67.7930 C   0  0  0  0  0  0  0  0  0  0  0  0
    4.4490   69.8640   66.8500 C   0  0  0  0  0  0  0  0  0  0  0  0
    5.7630   70.4230   67.2270 C   0  0  0  0  0  0  0  0  0  0  0  0
    6.6900   70.4650   66.4310 O   0  0  0  0  0  0  0  0  0  0  0  0
    4.2510   69.3700   65.5540 C   0  0  0  0  0  0  0  0  0  0  0  0
    3.0120   68.8430   65.1950 C   0  0  0  0  0  0  0  0  0  0  0  0
    1.9750   68.8090   66.1260 C   0  0  0  0  0  0  0  0  0  0  0  0
    2.1730   69.3020   67.4190 C   0  0  0  0  0  0  0  0  0  0  0  0
    4.8652   71.2362   70.5882 H   0  0  0  0  0  0  0  0  0  0  0  0
    2.7676   70.3041   69.8606 H   0  0  0  0  0  0  0  0  0  0  0  0
    5.0714   69.3981   64.8218 H   0  0  0  0  0  0  0  0  0  0  0  0
    2.8524   68.4544   64.1784 H   0  0  0  0  0  0  0  0  0  0  0  0
    0.9972   68.3927   65.8421 H   0  0  0  0  0  0  0  0  0  0  0  0
    1.3494   69.2711   68.1476 H   0  0  0  0  0  0  0  0  0  0  0  0
  2  1  2  0
  3  2  1  0
  4  3  2  0
  5  4  1  0
  6  5  2  0
  7  6  1  0
  7  2  1  0
  8  7  2  0
  9  6  1  0
 10  9  2  0
 11 10  1  0
 12 11  2  0
 12  5  1  0
  3 13  1  0
  4 14  1  0
  9 15  1  0
 10 16  1  0
 11 17  1  0
 12 18  1  0
M  END
>  <score>  (9) 
-7.881

$$$$
