=
     RDKit          3D

 71 75  0  0  0  0  0  0  0  0999 V2000
    0.2520   66.9310   69.0640 C   0  0  0  0  0  0  0  0  0  0  0  0
    0.4130   65.2620   70.8780 C   0  0  0  0  0  0  0  0  0  0  0  0
   -0.2020   65.9760   71.6680 O   0  0  0  0  0  0  0  0  0  0  0  0
    0.6750   65.6500   69.5880 N   0  0  0  0  0  0  0  0  0  0  0  0
   -0.0250   59.6290   73.3740 C   0  0  0  0  0  0  0  0  0  0  0  0
   -0.4470   60.9060   72.9740 C   0  0  0  0  0  0  0  0  0  0  0  0
    0.4420   61.7710   72.3310 C   0  0  0  0  0  0  0  0  0  0  0  0
    0.0500   63.1030   71.8990 C   0  0  0  0  0  0  0  0  0  0  0  0
    0.9250   63.9140   71.2800 C   0  0  0  0  0  0  0  0  0  0  0  0
    2.3140   63.4680   71.0250 C   0  0  0  0  0  0  0  0  0  0  0  0
    3.1370   64.1890   70.4650 O   0  0  0  0  0  0  0  0  0  0  0  0
    2.6630   62.1890   71.4480 O   0  0  0  0  0  0  0  0  0  0  0  0
    1.7420   61.3460   72.0940 C   0  0  0  0  0  0  0  0  0  0  0  0
    2.1870   60.0840   72.4800 C   0  0  0  0  0  0  0  0  0  0  0  0
    1.3030   59.2160   73.1250 C   0  0  0  0  0  0  0  0  0  0  0  0
   -1.2100   58.9870   75.3530 C   0  0  0  0  0  0  0  0  0  0  0  0
   -0.8260   58.7150   74.0120 O   0  0  0  0  0  0  0  0  0  0  0  0
    1.6310   57.9520   73.5500 O   0  0  0  0  0  0  0  0  0  0  0  0
    1.8910   56.9680   72.5590 C   0  0  0  0  0  0  0  0  0  0  0  0
   -1.1140   66.8360   68.3800 C   0  0  0  0  0  0  0  0  0  0  0  0
   -1.0730   67.2340   66.9020 C   0  0  0  0  0  0  0  0  0  0  0  0
   -0.7420   68.7120   66.6620 C   0  0  0  0  0  0  0  0  0  0  0  0
    0.3800   68.9450   65.6520 C   0  0  0  0  0  0  0  0  0  0  0  0
    1.4980   68.0370   65.9570 N   0  0  0  0  0  0  0  0  0  0  0  0
    2.7520   68.7040   65.7790 C   0  0  0  0  0  0  0  0  0  0  0  0
    3.4470   68.6220   64.5530 C   0  0  0  0  0  0  0  0  0  0  0  0
    2.8460   67.9580   63.3350 C   0  0  0  0  0  0  0  0  0  0  0  0
    3.8520   67.6630   62.2220 C   0  0  0  0  0  0  0  0  0  0  0  0
    4.7330   68.8750   61.9710 C   0  0  0  0  0  0  0  0  0  0  0  0
    5.5350   69.1960   63.2270 C   0  0  0  0  0  0  0  0  0  0  0  0
    4.6970   69.2440   64.4790 C   0  0  0  0  0  0  0  0  0  0  0  0
    5.2780   69.8760   65.5270 N   0  0  0  0  0  0  0  0  0  0  0  0
    4.6220   69.9400   66.6930 C   0  0  0  0  0  0  0  0  0  0  0  0
    3.3490   69.3700   66.8830 C   0  0  0  0  0  0  0  0  0  0  0  0
    2.7250   69.5060   68.1460 C   0  0  0  0  0  0  0  0  0  0  0  0
    3.3520   70.1700   69.1990 C   0  0  0  0  0  0  0  0  0  0  0  0
    4.6110   70.7160   69.0040 C   0  0  0  0  0  0  0  0  0  0  0  0
    5.2290   70.5970   67.7560 C   0  0  0  0  0  0  0  0  0  0  0  0
    0.1872   67.6519   69.8923 H   0  0  0  0  0  0  0  0  0  0  0  0
    0.9896   67.2576   68.3161 H   0  0  0  0  0  0  0  0  0  0  0  0
    1.1910   65.0067   68.9709 H   0  0  0  0  0  0  0  0  0  0  0  0
   -1.4812   61.2271   73.1673 H   0  0  0  0  0  0  0  0  0  0  0  0
   -0.9772   63.4518   72.0814 H   0  0  0  0  0  0  0  0  0  0  0  0
    3.2232   59.7743   72.2791 H   0  0  0  0  0  0  0  0  0  0  0  0
   -0.5105   58.4915   76.0424 H   0  0  0  0  0  0  0  0  0  0  0  0
   -1.1892   60.0729   75.5273 H   0  0  0  0  0  0  0  0  0  0  0  0
   -2.2275   58.6071   75.5273 H   0  0  0  0  0  0  0  0  0  0  0  0
    2.1429   56.0145   73.0462 H   0  0  0  0  0  0  0  0  0  0  0  0
    0.9974   56.8343   71.9317 H   0  0  0  0  0  0  0  0  0  0  0  0
    2.7340   57.2932   71.9317 H   0  0  0  0  0  0  0  0  0  0  0  0
   -1.4713   65.7982   68.4536 H   0  0  0  0  0  0  0  0  0  0  0  0
   -1.7872   67.5398   68.8913 H   0  0  0  0  0  0  0  0  0  0  0  0
   -0.3084   66.6226   66.4004 H   0  0  0  0  0  0  0  0  0  0  0  0
   -2.0825   67.0649   66.4992 H   0  0  0  0  0  0  0  0  0  0  0  0
   -1.6487   69.2132   66.2924 H   0  0  0  0  0  0  0  0  0  0  0  0
   -0.3927   69.1184   67.6227 H   0  0  0  0  0  0  0  0  0  0  0  0
    0.0089   68.7443   64.6361 H   0  0  0  0  0  0  0  0  0  0  0  0
    0.7226   69.9885   65.7124 H   0  0  0  0  0  0  0  0  0  0  0  0
    1.3925   67.0573   66.2570 H   0  0  0  0  0  0  0  0  0  0  0  0
    2.3908   67.0073   63.6496 H   0  0  0  0  0  0  0  0  0  0  0  0
    2.1125   68.6645   62.9192 H   0  0  0  0  0  0  0  0  0  0  0  0
    4.4823   66.8118   62.5191 H   0  0  0  0  0  0  0  0  0  0  0  0
    3.3036   67.4227   61.2992 H   0  0  0  0  0  0  0  0  0  0  0  0
    5.4229   68.6601   61.1416 H   0  0  0  0  0  0  0  0  0  0  0  0
    4.1011   69.7373   61.7119 H   0  0  0  0  0  0  0  0  0  0  0  0
    6.3072   68.4230   63.3542 H   0  0  0  0  0  0  0  0  0  0  0  0
    5.9670   70.1980   63.0880 H   0  0  0  0  0  0  0  0  0  0  0  0
    1.7233   69.0783   68.3000 H   0  0  0  0  0  0  0  0  0  0  0  0
    2.8527   70.2598   70.1750 H   0  0  0  0  0  0  0  0  0  0  0  0
    5.1206   71.2397   69.8263 H   0  0  0  0  0  0  0  0  0  0  0  0
    6.2267   71.0371   67.6110 H   0  0  0  0  0  0  0  0  0  0  0  0
  3  2  2  0
  4  2  1  0
  4  1  1  0
  6  5  2  0
  7  6  1  0
  8  7  1  0
  9  8  2  0
  9  2  1  0
 10  9  1  0
 11 10  2  0
 12 10  1  0
 13 12  1  0
 13  7  2  0
 14 13  1  0
 15  5  1  0
 15 14  2  0
 17 16  1  0
 17  5  1  0
 18 15  1  0
 19 18  1  0
 20  1  1  0
 21 20  1  0
 22 21  1  0
 23 22  1  0
 24 23  1  0
 25 24  1  0
 26 25  1  0
 27 26  1  0
 28 27  1  0
 29 28  1  0
 30 29  1  0
 31 26  2  0
 31 30  1  0
 32 31  1  0
 33 32  2  0
 34 33  1  0
 34 25  2  0
 35 34  1  0
 36 35  2  0
 37 36  1  0
 38 37  2  0
 38 33  1  0
  1 39  1  0
  1 40  1  0
  4 41  1  0
  6 42  1  0
  8 43  1  0
 14 44  1  0
 16 45  1  0
 16 46  1  0
 16 47  1  0
 19 48  1  0
 19 49  1  0
 19 50  1  0
 20 51  1  0
 20 52  1  0
 21 53  1  0
 21 54  1  0
 22 55  1  0
 22 56  1  0
 23 57  1  0
 23 58  1  0
 24 59  1  0
 27 60  1  0
 27 61  1  0
 28 62  1  0
 28 63  1  0
 29 64  1  0
 29 65  1  0
 30 66  1  0
 30 67  1  0
 35 68  1  0
 36 69  1  0
 37 70  1  0
 38 71  1  0
M  END
>  <score>  (1) 
-11.722

$$$$
=
     RDKit          3D

 71 75  0  0  0  0  0  0  0  0999 V2000
    1.8820   65.0450   70.2630 C   0  0  0  0  0  0  0  0  0  0  0  0
    3.0060   62.8860   70.6860 C   0  0  0  0  0  0  0  0  0  0  0  0
    4.1120   63.3400   70.3980 O   0  0  0  0  0  0  0  0  0  0  0  0
    1.8660   63.6510   70.6500 N   0  0  0  0  0  0  0  0  0  0  0  0
    0.3440   58.2320   73.7520 C   0  0  0  0  0  0  0  0  0  0  0  0
    0.5590   59.5540   73.3340 C   0  0  0  0  0  0  0  0  0  0  0  0
    1.5810   59.8480   72.4290 C   0  0  0  0  0  0  0  0  0  0  0  0
    1.8400   61.2020   71.9670 C   0  0  0  0  0  0  0  0  0  0  0  0
    2.8310   61.4570   71.0940 C   0  0  0  0  0  0  0  0  0  0  0  0
    3.6830   60.3600   70.5830 C   0  0  0  0  0  0  0  0  0  0  0  0
    4.5980   60.5630   69.7880 O   0  0  0  0  0  0  0  0  0  0  0  0
    3.4140   59.0740   71.0400 O   0  0  0  0  0  0  0  0  0  0  0  0
    2.3770   58.8150   71.9530 C   0  0  0  0  0  0  0  0  0  0  0  0
    2.1870   57.4940   72.3520 C   0  0  0  0  0  0  0  0  0  0  0  0
    1.1660   57.1940   73.2580 C   0  0  0  0  0  0  0  0  0  0  0  0
   -0.5020   58.2610   75.9920 C   0  0  0  0  0  0  0  0  0  0  0  0
   -0.6330   57.8500   74.6380 O   0  0  0  0  0  0  0  0  0  0  0  0
    0.8880   55.9320   73.7210 O   0  0  0  0  0  0  0  0  0  0  0  0
    1.9740   55.0300   73.8740 C   0  0  0  0  0  0  0  0  0  0  0  0
    0.4880   65.6690   70.3540 C   0  0  0  0  0  0  0  0  0  0  0  0
    0.1470   66.5530   69.1510 C   0  0  0  0  0  0  0  0  0  0  0  0
    1.2500   67.5510   68.7770 C   0  0  0  0  0  0  0  0  0  0  0  0
    1.5080   67.6640   67.2750 C   0  0  0  0  0  0  0  0  0  0  0  0
    1.6520   69.0840   66.9170 N   0  0  0  0  0  0  0  0  0  0  0  0
    2.9710   69.3490   66.4260 C   0  0  0  0  0  0  0  0  0  0  0  0
    3.3190   69.0510   65.0920 C   0  0  0  0  0  0  0  0  0  0  0  0
    2.2960   68.5810   64.0830 C   0  0  0  0  0  0  0  0  0  0  0  0
    2.8980   67.9890   62.8080 C   0  0  0  0  0  0  0  0  0  0  0  0
    4.0090   68.8840   62.2840 C   0  0  0  0  0  0  0  0  0  0  0  0
    5.1300   68.9670   63.3140 C   0  0  0  0  0  0  0  0  0  0  0  0
    4.6450   69.2740   64.7070 C   0  0  0  0  0  0  0  0  0  0  0  0
    5.6020   69.7180   65.5570 N   0  0  0  0  0  0  0  0  0  0  0  0
    5.2710   69.9860   66.8270 C   0  0  0  0  0  0  0  0  0  0  0  0
    3.9660   69.8210   67.3250 C   0  0  0  0  0  0  0  0  0  0  0  0
    3.7060   70.1480   68.6770 C   0  0  0  0  0  0  0  0  0  0  0  0
    4.7170   70.6090   69.5200 C   0  0  0  0  0  0  0  0  0  0  0  0
    6.0020   70.7560   69.0210 C   0  0  0  0  0  0  0  0  0  0  0  0
    6.2630   70.4460   67.6840 C   0  0  0  0  0  0  0  0  0  0  0  0
    2.5632   65.5933   70.9304 H   0  0  0  0  0  0  0  0  0  0  0  0
    2.2209   65.1090   69.2185 H   0  0  0  0  0  0  0  0  0  0  0  0
    0.9681   63.2171   70.9076 H   0  0  0  0  0  0  0  0  0  0  0  0
   -0.0798   60.3618   73.7206 H   0  0  0  0  0  0  0  0  0  0  0  0
    1.2167   62.0296   72.3366 H   0  0  0  0  0  0  0  0  0  0  0  0
    2.8334   56.6958   71.9583 H   0  0  0  0  0  0  0  0  0  0  0  0
   -0.7683   57.4256   76.6562 H   0  0  0  0  0  0  0  0  0  0  0  0
    0.5376   58.5650   76.1840 H   0  0  0  0  0  0  0  0  0  0  0  0
   -1.1739   59.1105   76.1840 H   0  0  0  0  0  0  0  0  0  0  0  0
    2.1685   54.8685   74.9446 H   0  0  0  0  0  0  0  0  0  0  0  0
    1.7236   54.0705   73.3980 H   0  0  0  0  0  0  0  0  0  0  0  0
    2.8713   55.4523   73.3980 H   0  0  0  0  0  0  0  0  0  0  0  0
   -0.2546   64.8599   70.4158 H   0  0  0  0  0  0  0  0  0  0  0  0
    0.4729   66.3103   71.2476 H   0  0  0  0  0  0  0  0  0  0  0  0
   -0.0380   65.9013   68.2844 H   0  0  0  0  0  0  0  0  0  0  0  0
   -0.7361   67.1456   69.4319 H   0  0  0  0  0  0  0  0  0  0  0  0
    0.9598   68.5432   69.1530 H   0  0  0  0  0  0  0  0  0  0  0  0
    2.1805   67.1793   69.2310 H   0  0  0  0  0  0  0  0  0  0  0  0
    2.4312   67.1239   67.0181 H   0  0  0  0  0  0  0  0  0  0  0  0
    0.6656   67.2254   66.7201 H   0  0  0  0  0  0  0  0  0  0  0  0
    0.9072   69.7897   67.0071 H   0  0  0  0  0  0  0  0  0  0  0  0
    1.6708   67.8111   64.5588 H   0  0  0  0  0  0  0  0  0  0  0  0
    1.7219   69.4686   63.7785 H   0  0  0  0  0  0  0  0  0  0  0  0
    3.3086   66.9928   63.0293 H   0  0  0  0  0  0  0  0  0  0  0  0
    2.1109   67.9111   62.0435 H   0  0  0  0  0  0  0  0  0  0  0  0
    4.4040   68.4658   61.3464 H   0  0  0  0  0  0  0  0  0  0  0  0
    3.6086   69.8917   62.0989 H   0  0  0  0  0  0  0  0  0  0  0  0
    5.6569   68.0016   63.3337 H   0  0  0  0  0  0  0  0  0  0  0  0
    5.7874   69.7951   63.0106 H   0  0  0  0  0  0  0  0  0  0  0  0
    2.6852   70.0363   69.0714 H   0  0  0  0  0  0  0  0  0  0  0  0
    4.4971   70.8534   70.5697 H   0  0  0  0  0  0  0  0  0  0  0  0
    6.8114   71.1146   69.6739 H   0  0  0  0  0  0  0  0  0  0  0  0
    7.2855   70.5700   67.2979 H   0  0  0  0  0  0  0  0  0  0  0  0
  3  2  2  0
  4  2  1  0
  4  1  1  0
  6  5  2  0
  7  6  1  0
  8  7  1  0
  9  8  2  0
  9  2  1  0
 10  9  1  0
 11 10  2  0
 12 10  1  0
 13 12  1  0
 13  7  2  0
 14 13  1  0
 15  5  1  0
 15 14  2  0
 17 16  1  0
 17  5  1  0
 18 15  1  0
 19 18  1  0
 20  1  1  0
 21 20  1  0
 22 21  1  0
 23 22  1  0
 24 23  1  0
 25 24  1  0
 26 25  1  0
 27 26  1  0
 28 27  1  0
 29 28  1  0
 30 29  1  0
 31 26  2  0
 31 30  1  0
 32 31  1  0
 33 32  2  0
 34 33  1  0
 34 25  2  0
 35 34  1  0
 36 35  2  0
 37 36  1  0
 38 37  2  0
 38 33  1  0
  1 39  1  0
  1 40  1  0
  4 41  1  0
  6 42  1  0
  8 43  1  0
 14 44  1  0
 16 45  1  0
 16 46  1  0
 16 47  1  0
 19 48  1  0
 19 49  1  0
 19 50  1  0
 20 51  1  0
 20 52  1  0
 21 53  1  0
 21 54  1  0
 22 55  1  0
 22 56  1  0
 23 57  1  0
 23 58  1  0
 24 59  1  0
 27 60  1  0
 27 61  1  0
 28 62  1  0
 28 63  1  0
 29 64  1  0
 29 65  1  0
 30 66  1  0
 30 67  1  0
 35 68  1  0
 36 69  1  0
 37 70  1  0
 38 71  1  0
M  END
>  <score>  (2) 
-11.57

$$$$
=
     RDKit          3D

 71 75  0  0  0  0  0  0  0  0999 V2000
    0.2280   66.8560   69.1440 C   0  0  0  0  0  0  0  0  0  0  0  0
    0.3920   65.1630   70.9360 C   0  0  0  0  0  0  0  0  0  0  0  0
   -0.1730   65.8880   71.7520 O   0  0  0  0  0  0  0  0  0  0  0  0
    0.6240   65.5560   69.6410 N   0  0  0  0  0  0  0  0  0  0  0  0
   -0.1240   59.5520   73.4650 C   0  0  0  0  0  0  0  0  0  0  0  0
   -0.5160   60.8460   73.0910 C   0  0  0  0  0  0  0  0  0  0  0  0
    0.3650   61.6720   72.3910 C   0  0  0  0  0  0  0  0  0  0  0  0
    0.0030   63.0200   71.9820 C   0  0  0  0  0  0  0  0  0  0  0  0
    0.8710   63.7940   71.3070 C   0  0  0  0  0  0  0  0  0  0  0  0
    2.2200   63.2900   70.9650 C   0  0  0  0  0  0  0  0  0  0  0  0
    3.0360   63.9760   70.3530 O   0  0  0  0  0  0  0  0  0  0  0  0
    2.5410   61.9970   71.3670 O   0  0  0  0  0  0  0  0  0  0  0  0
    1.6290   61.1940   72.0730 C   0  0  0  0  0  0  0  0  0  0  0  0
    2.0440   59.9140   72.4330 C   0  0  0  0  0  0  0  0  0  0  0  0
    1.1670   59.0830   73.1340 C   0  0  0  0  0  0  0  0  0  0  0  0
   -2.1590   59.1510   74.6610 C   0  0  0  0  0  0  0  0  0  0  0  0
   -0.9210   58.6720   74.1560 O   0  0  0  0  0  0  0  0  0  0  0  0
    1.4670   57.8060   73.5400 O   0  0  0  0  0  0  0  0  0  0  0  0
    1.9450   56.8960   72.5590 C   0  0  0  0  0  0  0  0  0  0  0  0
   -1.0960   66.7860   68.3800 C   0  0  0  0  0  0  0  0  0  0  0  0
   -0.9920   67.3280   66.9510 C   0  0  0  0  0  0  0  0  0  0  0  0
   -0.5410   68.7910   66.8690 C   0  0  0  0  0  0  0  0  0  0  0  0
    0.5490   69.0520   65.8300 C   0  0  0  0  0  0  0  0  0  0  0  0
    1.6270   68.0650   66.0050 N   0  0  0  0  0  0  0  0  0  0  0  0
    2.9080   68.6950   65.8950 C   0  0  0  0  0  0  0  0  0  0  0  0
    3.4570   69.4120   66.9800 C   0  0  0  0  0  0  0  0  0  0  0  0
    2.7990   69.4310   68.3410 C   0  0  0  0  0  0  0  0  0  0  0  0
    3.3340   70.5120   69.2810 C   0  0  0  0  0  0  0  0  0  0  0  0
    4.8530   70.5280   69.2580 C   0  0  0  0  0  0  0  0  0  0  0  0
    5.3430   70.8690   67.8560 C   0  0  0  0  0  0  0  0  0  0  0  0
    4.6800   70.0550   66.7740 C   0  0  0  0  0  0  0  0  0  0  0  0
    5.3310   70.0540   65.5850 N   0  0  0  0  0  0  0  0  0  0  0  0
    4.8000   69.3850   64.5540 C   0  0  0  0  0  0  0  0  0  0  0  0
    3.5850   68.6820   64.6460 C   0  0  0  0  0  0  0  0  0  0  0  0
    3.1120   67.9870   63.5070 C   0  0  0  0  0  0  0  0  0  0  0  0
    3.8150   68.0030   62.3030 C   0  0  0  0  0  0  0  0  0  0  0  0
    5.0040   68.7100   62.2200 C   0  0  0  0  0  0  0  0  0  0  0  0
    5.4830   69.3880   63.3430 C   0  0  0  0  0  0  0  0  0  0  0  0
    0.1137   67.5440   69.9946 H   0  0  0  0  0  0  0  0  0  0  0  0
    1.0062   67.2126   68.4531 H   0  0  0  0  0  0  0  0  0  0  0  0
    1.0967   64.9023   69.0006 H   0  0  0  0  0  0  0  0  0  0  0  0
   -1.5208   61.2109   73.3502 H   0  0  0  0  0  0  0  0  0  0  0  0
   -0.9949   63.4118   72.2283 H   0  0  0  0  0  0  0  0  0  0  0  0
    3.0517   59.5613   72.1681 H   0  0  0  0  0  0  0  0  0  0  0  0
   -2.1347   59.1416   75.7607 H   0  0  0  0  0  0  0  0  0  0  0  0
   -2.3265   60.1788   74.3067 H   0  0  0  0  0  0  0  0  0  0  0  0
   -2.9747   58.5036   74.3067 H   0  0  0  0  0  0  0  0  0  0  0  0
    2.4013   56.0273   73.0561 H   0  0  0  0  0  0  0  0  0  0  0  0
    1.1067   56.5605   71.9307 H   0  0  0  0  0  0  0  0  0  0  0  0
    2.6970   57.3958   71.9307 H   0  0  0  0  0  0  0  0  0  0  0  0
   -1.4189   65.7355   68.3338 H   0  0  0  0  0  0  0  0  0  0  0  0
   -1.8202   67.4149   68.9185 H   0  0  0  0  0  0  0  0  0  0  0  0
   -0.2671   66.7114   66.3993 H   0  0  0  0  0  0  0  0  0  0  0  0
   -2.0028   67.2825   66.5196 H   0  0  0  0  0  0  0  0  0  0  0  0
   -1.4154   69.4080   66.6145 H   0  0  0  0  0  0  0  0  0  0  0  0
   -0.1115   69.0453   67.8492 H   0  0  0  0  0  0  0  0  0  0  0  0
    0.1246   68.9588   64.8195 H   0  0  0  0  0  0  0  0  0  0  0  0
    0.9511   70.0674   65.9615 H   0  0  0  0  0  0  0  0  0  0  0  0
    1.4802   67.0610   66.1819 H   0  0  0  0  0  0  0  0  0  0  0  0
    1.7210   69.5986   68.2006 H   0  0  0  0  0  0  0  0  0  0  0  0
    3.0219   68.4629   68.8133 H   0  0  0  0  0  0  0  0  0  0  0  0
    2.9561   71.4931   68.9577 H   0  0  0  0  0  0  0  0  0  0  0  0
    2.9945   70.2953   70.3046 H   0  0  0  0  0  0  0  0  0  0  0  0
    5.2213   71.2835   69.9677 H   0  0  0  0  0  0  0  0  0  0  0  0
    5.2316   69.5357   69.5444 H   0  0  0  0  0  0  0  0  0  0  0  0
    5.1401   71.9332   67.6652 H   0  0  0  0  0  0  0  0  0  0  0  0
    6.4179   70.6375   67.8231 H   0  0  0  0  0  0  0  0  0  0  0  0
    2.1702   67.4226   63.5732 H   0  0  0  0  0  0  0  0  0  0  0  0
    3.4296   67.4598   61.4276 H   0  0  0  0  0  0  0  0  0  0  0  0
    5.5670   68.7370   61.2754 H   0  0  0  0  0  0  0  0  0  0  0  0
    6.4304   69.9418   63.2671 H   0  0  0  0  0  0  0  0  0  0  0  0
  3  2  2  0
  4  2  1  0
  4  1  1  0
  6  5  2  0
  7  6  1  0
  8  7  1  0
  9  8  2  0
  9  2  1  0
 10  9  1  0
 11 10  2  0
 12 10  1  0
 13 12  1  0
 13  7  2  0
 14 13  1  0
 15  5  1  0
 15 14  2  0
 17 16  1  0
 17  5  1  0
 18 15  1  0
 19 18  1  0
 20  1  1  0
 21 20  1  0
 22 21  1  0
 23 22  1  0
 24 23  1  0
 25 24  1  0
 26 25  1  0
 27 26  1  0
 28 27  1  0
 29 28  1  0
 30 29  1  0
 31 26  2  0
 31 30  1  0
 32 31  1  0
 33 32  2  0
 34 33  1  0
 34 25  2  0
 35 34  1  0
 36 35  2  0
 37 36  1  0
 38 37  2  0
 38 33  1  0
  1 39  1  0
  1 40  1  0
  4 41  1  0
  6 42  1  0
  8 43  1  0
 14 44  1  0
 16 45  1  0
 16 46  1  0
 16 47  1  0
 19 48  1  0
 19 49  1  0
 19 50  1  0
 20 51  1  0
 20 52  1  0
 21 53  1  0
 21 54  1  0
 22 55  1  0
 22 56  1  0
 23 57  1  0
 23 58  1  0
 24 59  1  0
 27 60  1  0
 27 61  1  0
 28 62  1  0
 28 63  1  0
 29 64  1  0
 29 65  1  0
 30 66  1  0
 30 67  1  0
 35 68  1  0
 36 69  1  0
 37 70  1  0
 38 71  1  0
M  END
>  <score>  (3) 
-11.57

$$$$
=
     RDKit          3D

 71 75  0  0  0  0  0  0  0  0999 V2000
    2.4090   64.8690   70.3470 C   0  0  0  0  0  0  0  0  0  0  0  0
    3.3650   62.6230   70.7280 C   0  0  0  0  0  0  0  0  0  0  0  0
    4.5080   63.0050   70.4880 O   0  0  0  0  0  0  0  0  0  0  0  0
    2.2830   63.4680   70.6860 N   0  0  0  0  0  0  0  0  0  0  0  0
    0.6000   58.0940   73.8910 C   0  0  0  0  0  0  0  0  0  0  0  0
    0.9130   59.4090   73.5160 C   0  0  0  0  0  0  0  0  0  0  0  0
    1.8330   59.6490   72.4930 C   0  0  0  0  0  0  0  0  0  0  0  0
    2.1880   60.9940   72.0700 C   0  0  0  0  0  0  0  0  0  0  0  0
    3.0760   61.1970   71.0810 C   0  0  0  0  0  0  0  0  0  0  0  0
    3.7150   60.0500   70.3980 C   0  0  0  0  0  0  0  0  0  0  0  0
    4.5330   60.2030   69.4940 O   0  0  0  0  0  0  0  0  0  0  0  0
    3.3580   58.7730   70.8210 O   0  0  0  0  0  0  0  0  0  0  0  0
    2.4290   58.5690   71.8570 C   0  0  0  0  0  0  0  0  0  0  0  0
    2.1370   57.2540   72.2090 C   0  0  0  0  0  0  0  0  0  0  0  0
    1.2190   57.0080   73.2320 C   0  0  0  0  0  0  0  0  0  0  0  0
   -1.4960   58.5070   74.9720 C   0  0  0  0  0  0  0  0  0  0  0  0
   -0.2880   57.7640   74.8840 O   0  0  0  0  0  0  0  0  0  0  0  0
    0.8560   55.7560   73.6630 O   0  0  0  0  0  0  0  0  0  0  0  0
    1.8940   54.8400   73.9810 C   0  0  0  0  0  0  0  0  0  0  0  0
    1.0490   65.4970   70.0370 C   0  0  0  0  0  0  0  0  0  0  0  0
    1.1510   66.9590   69.5920 C   0  0  0  0  0  0  0  0  0  0  0  0
    0.4930   67.2480   68.2380 C   0  0  0  0  0  0  0  0  0  0  0  0
    1.4800   67.3900   67.0810 C   0  0  0  0  0  0  0  0  0  0  0  0
    1.5620   68.8070   66.6900 N   0  0  0  0  0  0  0  0  0  0  0  0
    2.9000   69.1470   66.3070 C   0  0  0  0  0  0  0  0  0  0  0  0
    3.7850   69.7460   67.2290 C   0  0  0  0  0  0  0  0  0  0  0  0
    3.4230   69.9240   68.6860 C   0  0  0  0  0  0  0  0  0  0  0  0
    4.3420   70.8800   69.4480 C   0  0  0  0  0  0  0  0  0  0  0  0
    5.7980   70.5710   69.1400 C   0  0  0  0  0  0  0  0  0  0  0  0
    6.0650   70.7800   67.6540 C   0  0  0  0  0  0  0  0  0  0  0  0
    5.0510   70.1110   66.7620 C   0  0  0  0  0  0  0  0  0  0  0  0
    5.4430   69.9540   65.4750 N   0  0  0  0  0  0  0  0  0  0  0  0
    4.5950   69.3990   64.5990 C   0  0  0  0  0  0  0  0  0  0  0  0
    3.3030   68.9720   64.9560 C   0  0  0  0  0  0  0  0  0  0  0  0
    2.4850   68.3780   63.9660 C   0  0  0  0  0  0  0  0  0  0  0  0
    2.9270   68.2270   62.6520 C   0  0  0  0  0  0  0  0  0  0  0  0
    4.1970   68.6630   62.3100 C   0  0  0  0  0  0  0  0  0  0  0  0
    5.0160   69.2390   63.2840 C   0  0  0  0  0  0  0  0  0  0  0  0
    2.8636   65.4021   71.1950 H   0  0  0  0  0  0  0  0  0  0  0  0
    3.0389   64.9508   69.4489 H   0  0  0  0  0  0  0  0  0  0  0  0
    1.3494   63.0912   70.9034 H   0  0  0  0  0  0  0  0  0  0  0  0
    0.4320   60.2544   74.0297 H   0  0  0  0  0  0  0  0  0  0  0  0
    1.7231   61.8585   72.5665 H   0  0  0  0  0  0  0  0  0  0  0  0
    2.6244   56.4176   71.6867 H   0  0  0  0  0  0  0  0  0  0  0  0
   -1.7530   58.6651   76.0298 H   0  0  0  0  0  0  0  0  0  0  0  0
   -1.3645   59.4806   74.4772 H   0  0  0  0  0  0  0  0  0  0  0  0
   -2.3056   57.9505   74.4772 H   0  0  0  0  0  0  0  0  0  0  0  0
    1.9879   54.7572   75.0739 H   0  0  0  0  0  0  0  0  0  0  0  0
    1.6547   53.8533   73.5577 H   0  0  0  0  0  0  0  0  0  0  0  0
    2.8433   55.2002   73.5577 H   0  0  0  0  0  0  0  0  0  0  0  0
    0.5712   64.9185   69.2326 H   0  0  0  0  0  0  0  0  0  0  0  0
    0.4585   65.4765   70.9649 H   0  0  0  0  0  0  0  0  0  0  0  0
    0.6649   67.5866   70.3534 H   0  0  0  0  0  0  0  0  0  0  0  0
    2.2221   67.1822   69.4784 H   0  0  0  0  0  0  0  0  0  0  0  0
   -0.1951   66.4219   68.0053 H   0  0  0  0  0  0  0  0  0  0  0  0
   -0.0212   68.2155   68.3360 H   0  0  0  0  0  0  0  0  0  0  0  0
    2.4725   67.0371   67.3979 H   0  0  0  0  0  0  0  0  0  0  0  0
    1.1382   66.7884   66.2259 H   0  0  0  0  0  0  0  0  0  0  0  0
    0.7678   69.4628   66.6916 H   0  0  0  0  0  0  0  0  0  0  0  0
    2.3964   70.3151   68.7411 H   0  0  0  0  0  0  0  0  0  0  0  0
    3.5293   68.9375   69.1609 H   0  0  0  0  0  0  0  0  0  0  0  0
    4.1192   71.9143   69.1471 H   0  0  0  0  0  0  0  0  0  0  0  0
    4.1708   70.7560   70.5275 H   0  0  0  0  0  0  0  0  0  0  0  0
    6.4455   71.2404   69.7254 H   0  0  0  0  0  0  0  0  0  0  0  0
    6.0120   69.5250   69.4047 H   0  0  0  0  0  0  0  0  0  0  0  0
    6.0527   71.8602   67.4464 H   0  0  0  0  0  0  0  0  0  0  0  0
    7.0415   70.3243   67.4331 H   0  0  0  0  0  0  0  0  0  0  0  0
    1.4786   68.0277   64.2387 H   0  0  0  0  0  0  0  0  0  0  0  0
    2.2746   67.7668   61.8953 H   0  0  0  0  0  0  0  0  0  0  0  0
    4.5585   68.5561   61.2766 H   0  0  0  0  0  0  0  0  0  0  0  0
    6.0244   69.5761   63.0019 H   0  0  0  0  0  0  0  0  0  0  0  0
  3  2  2  0
  4  2  1  0
  4  1  1  0
  6  5  2  0
  7  6  1  0
  8  7  1  0
  9  8  2  0
  9  2  1  0
 10  9  1  0
 11 10  2  0
 12 10  1  0
 13 12  1  0
 13  7  2  0
 14 13  1  0
 15  5  1  0
 15 14  2  0
 17 16  1  0
 17  5  1  0
 18 15  1  0
 19 18  1  0
 20  1  1  0
 21 20  1  0
 22 21  1  0
 23 22  1  0
 24 23  1  0
 25 24  1  0
 26 25  1  0
 27 26  1  0
 28 27  1  0
 29 28  1  0
 30 29  1  0
 31 26  2  0
 31 30  1  0
 32 31  1  0
 33 32  2  0
 34 33  1  0
 34 25  2  0
 35 34  1  0
 36 35  2  0
 37 36  1  0
 38 37  2  0
 38 33  1  0
  1 39  1  0
  1 40  1  0
  4 41  1  0
  6 42  1  0
  8 43  1  0
 14 44  1  0
 16 45  1  0
 16 46  1  0
 16 47  1  0
 19 48  1  0
 19 49  1  0
 19 50  1  0
 20 51  1  0
 20 52  1  0
 21 53  1  0
 21 54  1  0
 22 55  1  0
 22 56  1  0
 23 57  1  0
 23 58  1  0
 24 59  1  0
 27 60  1  0
 27 61  1  0
 28 62  1  0
 28 63  1  0
 29 64  1  0
 29 65  1  0
 30 66  1  0
 30 67  1  0
 35 68  1  0
 36 69  1  0
 37 70  1  0
 38 71  1  0
M  END
>  <score>  (4) 
-11.441

$$$$
=
     RDKit          3D

 71 75  0  0  0  0  0  0  0  0999 V2000
    1.8540   64.6420   70.2660 C   0  0  0  0  0  0  0  0  0  0  0  0
    1.9980   62.5930   71.6380 C   0  0  0  0  0  0  0  0  0  0  0  0
    3.2190   62.6840   71.7520 O   0  0  0  0  0  0  0  0  0  0  0  0
    1.2550   63.5070   70.9340 N   0  0  0  0  0  0  0  0  0  0  0  0
    1.2250   56.7970   73.6290 C   0  0  0  0  0  0  0  0  0  0  0  0
    1.8850   57.8920   73.0510 C   0  0  0  0  0  0  0  0  0  0  0  0
    1.2390   59.1250   72.9440 C   0  0  0  0  0  0  0  0  0  0  0  0
    1.8830   60.2870   72.3530 C   0  0  0  0  0  0  0  0  0  0  0  0
    1.2390   61.4640   72.2630 C   0  0  0  0  0  0  0  0  0  0  0  0
   -0.1470   61.6030   72.7650 C   0  0  0  0  0  0  0  0  0  0  0  0
   -0.7620   62.6640   72.6940 O   0  0  0  0  0  0  0  0  0  0  0  0
   -0.7400   60.4760   73.3270 O   0  0  0  0  0  0  0  0  0  0  0  0
   -0.0600   59.2490   73.4170 C   0  0  0  0  0  0  0  0  0  0  0  0
   -0.7390   58.1790   73.9940 C   0  0  0  0  0  0  0  0  0  0  0  0
   -0.0980   56.9420   74.1030 C   0  0  0  0  0  0  0  0  0  0  0  0
    2.5660   55.3000   74.9300 C   0  0  0  0  0  0  0  0  0  0  0  0
    1.7790   55.5490   73.7740 O   0  0  0  0  0  0  0  0  0  0  0  0
   -0.6680   55.8210   74.6520 O   0  0  0  0  0  0  0  0  0  0  0  0
   -0.9460   55.8340   76.0460 C   0  0  0  0  0  0  0  0  0  0  0  0
    0.9230   65.8560   70.2760 C   0  0  0  0  0  0  0  0  0  0  0  0
    1.4890   67.0510   69.5030 C   0  0  0  0  0  0  0  0  0  0  0  0
    0.6360   67.4790   68.3030 C   0  0  0  0  0  0  0  0  0  0  0  0
    1.4040   67.5550   66.9850 C   0  0  0  0  0  0  0  0  0  0  0  0
    1.5630   68.9670   66.6000 N   0  0  0  0  0  0  0  0  0  0  0  0
    2.9250   69.2460   66.2590 C   0  0  0  0  0  0  0  0  0  0  0  0
    3.8070   69.8060   67.2070 C   0  0  0  0  0  0  0  0  0  0  0  0
    3.4100   70.0020   68.6520 C   0  0  0  0  0  0  0  0  0  0  0  0
    4.3470   70.9160   69.4420 C   0  0  0  0  0  0  0  0  0  0  0  0
    5.7960   70.5420   69.1790 C   0  0  0  0  0  0  0  0  0  0  0  0
    6.1170   70.7370   67.7020 C   0  0  0  0  0  0  0  0  0  0  0  0
    5.1020   70.1130   66.7790 C   0  0  0  0  0  0  0  0  0  0  0  0
    5.5260   69.9380   65.5040 N   0  0  0  0  0  0  0  0  0  0  0  0
    4.6810   69.4200   64.6030 C   0  0  0  0  0  0  0  0  0  0  0  0
    3.3610   69.0520   64.9200 C   0  0  0  0  0  0  0  0  0  0  0  0
    2.5470   68.4940   63.9050 C   0  0  0  0  0  0  0  0  0  0  0  0
    3.0220   68.3230   62.6060 C   0  0  0  0  0  0  0  0  0  0  0  0
    4.3200   68.7010   62.3020 C   0  0  0  0  0  0  0  0  0  0  0  0
    5.1340   69.2410   63.3010 C   0  0  0  0  0  0  0  0  0  0  0  0
    2.7902   64.9056   70.7799 H   0  0  0  0  0  0  0  0  0  0  0  0
    2.0459   64.3637   69.2192 H   0  0  0  0  0  0  0  0  0  0  0  0
    0.2343   63.3805   70.8792 H   0  0  0  0  0  0  0  0  0  0  0  0
    2.9147   57.7786   72.6810 H   0  0  0  0  0  0  0  0  0  0  0  0
    2.9121   60.2020   71.9740 H   0  0  0  0  0  0  0  0  0  0  0  0
   -1.7685   58.3060   74.3600 H   0  0  0  0  0  0  0  0  0  0  0  0
    1.9645   55.4903   75.8311 H   0  0  0  0  0  0  0  0  0  0  0  0
    2.9006   54.2521   74.9271 H   0  0  0  0  0  0  0  0  0  0  0  0
    3.4424   55.9647   74.9271 H   0  0  0  0  0  0  0  0  0  0  0  0
   -0.0018   55.7898   76.6086 H   0  0  0  0  0  0  0  0  0  0  0  0
   -1.4837   56.7583   76.3041 H   0  0  0  0  0  0  0  0  0  0  0  0
   -1.5676   54.9639   76.3041 H   0  0  0  0  0  0  0  0  0  0  0  0
   -0.0356   65.5663   69.8207 H   0  0  0  0  0  0  0  0  0  0  0  0
    0.8022   66.1692   71.3235 H   0  0  0  0  0  0  0  0  0  0  0  0
    1.5671   67.9038   70.1934 H   0  0  0  0  0  0  0  0  0  0  0  0
    2.4650   66.7380   69.1038 H   0  0  0  0  0  0  0  0  0  0  0  0
   -0.1818   66.7530   68.1845 H   0  0  0  0  0  0  0  0  0  0  0  0
    0.2751   68.4956   68.5179 H   0  0  0  0  0  0  0  0  0  0  0  0
    2.3947   67.0933   67.1090 H   0  0  0  0  0  0  0  0  0  0  0  0
    0.8492   67.0178   66.2017 H   0  0  0  0  0  0  0  0  0  0  0  0
    0.7999   69.6584   66.5789 H   0  0  0  0  0  0  0  0  0  0  0  0
    2.4008   70.4391   68.6760 H   0  0  0  0  0  0  0  0  0  0  0  0
    3.4579   69.0122   69.1295 H   0  0  0  0  0  0  0  0  0  0  0  0
    4.1802   71.9590   69.1349 H   0  0  0  0  0  0  0  0  0  0  0  0
    4.1374   70.8005   70.5157 H   0  0  0  0  0  0  0  0  0  0  0  0
    6.4545   71.1826   69.7840 H   0  0  0  0  0  0  0  0  0  0  0  0
    5.9551   69.4879   69.4502 H   0  0  0  0  0  0  0  0  0  0  0  0
    6.1593   71.8164   67.4944 H   0  0  0  0  0  0  0  0  0  0  0  0
    7.0783   70.2376   67.5110 H   0  0  0  0  0  0  0  0  0  0  0  0
    1.5181   68.1890   64.1467 H   0  0  0  0  0  0  0  0  0  0  0  0
    2.3728   67.8921   61.8295 H   0  0  0  0  0  0  0  0  0  0  0  0
    4.7073   68.5766   61.2800 H   0  0  0  0  0  0  0  0  0  0  0  0
    6.1643   69.5333   63.0497 H   0  0  0  0  0  0  0  0  0  0  0  0
  3  2  2  0
  4  2  1  0
  4  1  1  0
  6  5  2  0
  7  6  1  0
  8  7  1  0
  9  8  2  0
  9  2  1  0
 10  9  1  0
 11 10  2  0
 12 10  1  0
 13 12  1  0
 13  7  2  0
 14 13  1  0
 15  5  1  0
 15 14  2  0
 17 16  1  0
 17  5  1  0
 18 15  1  0
 19 18  1  0
 20  1  1  0
 21 20  1  0
 22 21  1  0
 23 22  1  0
 24 23  1  0
 25 24  1  0
 26 25  1  0
 27 26  1  0
 28 27  1  0
 29 28  1  0
 30 29  1  0
 31 26  2  0
 31 30  1  0
 32 31  1  0
 33 32  2  0
 34 33  1  0
 34 25  2  0
 35 34  1  0
 36 35  2  0
 37 36  1  0
 38 37  2  0
 38 33  1  0
  1 39  1  0
  1 40  1  0
  4 41  1  0
  6 42  1  0
  8 43  1  0
 14 44  1  0
 16 45  1  0
 16 46  1  0
 16 47  1  0
 19 48  1  0
 19 49  1  0
 19 50  1  0
 20 51  1  0
 20 52  1  0
 21 53  1  0
 21 54  1  0
 22 55  1  0
 22 56  1  0
 23 57  1  0
 23 58  1  0
 24 59  1  0
 27 60  1  0
 27 61  1  0
 28 62  1  0
 28 63  1  0
 29 64  1  0
 29 65  1  0
 30 66  1  0
 30 67  1  0
 35 68  1  0
 36 69  1  0
 37 70  1  0
 38 71  1  0
M  END
>  <score>  (5) 
-11.375

$$$$
=
     RDKit          3D

 71 75  0  0  0  0  0  0  0  0999 V2000
    1.9840   65.1440   70.1890 C   0  0  0  0  0  0  0  0  0  0  0  0
    2.0120   63.0490   71.4990 C   0  0  0  0  0  0  0  0  0  0  0  0
    3.2380   62.9670   71.4490 O   0  0  0  0  0  0  0  0  0  0  0  0
    1.3210   64.0810   70.9140 N   0  0  0  0  0  0  0  0  0  0  0  0
    0.7370   57.3740   73.5750 C   0  0  0  0  0  0  0  0  0  0  0  0
    1.4630   58.3840   72.9280 C   0  0  0  0  0  0  0  0  0  0  0  0
    0.9690   59.6890   72.8870 C   0  0  0  0  0  0  0  0  0  0  0  0
    1.6870   60.7690   72.2280 C   0  0  0  0  0  0  0  0  0  0  0  0
    1.1880   62.0170   72.2040 C   0  0  0  0  0  0  0  0  0  0  0  0
   -0.1090   62.3220   72.8500 C   0  0  0  0  0  0  0  0  0  0  0  0
   -0.5910   63.4520   72.8410 O   0  0  0  0  0  0  0  0  0  0  0  0
   -0.7750   61.2710   73.4740 O   0  0  0  0  0  0  0  0  0  0  0  0
   -0.2470   59.9680   73.4940 C   0  0  0  0  0  0  0  0  0  0  0  0
   -0.9900   58.9850   74.1430 C   0  0  0  0  0  0  0  0  0  0  0  0
   -0.5010   57.6770   74.1870 C   0  0  0  0  0  0  0  0  0  0  0  0
    2.1210   55.7360   74.6400 C   0  0  0  0  0  0  0  0  0  0  0  0
    1.1430   56.0650   73.6640 O   0  0  0  0  0  0  0  0  0  0  0  0
   -1.1450   56.6290   74.7960 O   0  0  0  0  0  0  0  0  0  0  0  0
   -2.1950   56.9360   75.7020 C   0  0  0  0  0  0  0  0  0  0  0  0
    1.1330   66.4150   70.1510 C   0  0  0  0  0  0  0  0  0  0  0  0
    0.1640   66.4520   68.9650 C   0  0  0  0  0  0  0  0  0  0  0  0
    0.2640   67.7250   68.1160 C   0  0  0  0  0  0  0  0  0  0  0  0
    1.4300   67.7270   67.1290 C   0  0  0  0  0  0  0  0  0  0  0  0
    1.5760   69.0760   66.5590 N   0  0  0  0  0  0  0  0  0  0  0  0
    2.9460   69.3440   66.2410 C   0  0  0  0  0  0  0  0  0  0  0  0
    3.4590   69.0600   64.9570 C   0  0  0  0  0  0  0  0  0  0  0  0
    2.5690   68.6050   63.8230 C   0  0  0  0  0  0  0  0  0  0  0  0
    3.3260   68.0270   62.6260 C   0  0  0  0  0  0  0  0  0  0  0  0
    4.4940   68.9250   62.2560 C   0  0  0  0  0  0  0  0  0  0  0  0
    5.4770   68.9930   63.4180 C   0  0  0  0  0  0  0  0  0  0  0  0
    4.8220   69.2850   64.7440 C   0  0  0  0  0  0  0  0  0  0  0  0
    5.6650   69.7170   65.7120 N   0  0  0  0  0  0  0  0  0  0  0  0
    5.1790   69.9710   66.9330 C   0  0  0  0  0  0  0  0  0  0  0  0
    3.8210   69.8030   67.2630 C   0  0  0  0  0  0  0  0  0  0  0  0
    3.3950   70.1150   68.5750 C   0  0  0  0  0  0  0  0  0  0  0  0
    4.2930   70.5640   69.5430 C   0  0  0  0  0  0  0  0  0  0  0  0
    5.6300   70.7130   69.2110 C   0  0  0  0  0  0  0  0  0  0  0  0
    6.0560   70.4190   67.9130 C   0  0  0  0  0  0  0  0  0  0  0  0
    2.9410   65.3697   70.6821 H   0  0  0  0  0  0  0  0  0  0  0  0
    2.1454   64.8066   69.1545 H   0  0  0  0  0  0  0  0  0  0  0  0
    0.2943   64.0995   70.9938 H   0  0  0  0  0  0  0  0  0  0  0  0
    2.4255   58.1472   72.4509 H   0  0  0  0  0  0  0  0  0  0  0  0
    2.6520   60.5615   71.7424 H   0  0  0  0  0  0  0  0  0  0  0  0
   -1.9511   59.2356   74.6157 H   0  0  0  0  0  0  0  0  0  0  0  0
    1.6980   55.8783   75.6454 H   0  0  0  0  0  0  0  0  0  0  0  0
    2.4248   54.6862   74.5152 H   0  0  0  0  0  0  0  0  0  0  0  0
    2.9976   56.3887   74.5152 H   0  0  0  0  0  0  0  0  0  0  0  0
   -1.8311   56.8296   76.7346 H   0  0  0  0  0  0  0  0  0  0  0  0
   -2.5315   57.9701   75.5365 H   0  0  0  0  0  0  0  0  0  0  0  0
   -3.0356   56.2460   75.5365 H   0  0  0  0  0  0  0  0  0  0  0  0
    0.5499   66.4743   71.0819 H   0  0  0  0  0  0  0  0  0  0  0  0
    1.8197   67.2673   70.0412 H   0  0  0  0  0  0  0  0  0  0  0  0
    0.3759   65.5877   68.3184 H   0  0  0  0  0  0  0  0  0  0  0  0
   -0.8526   66.4288   69.3844 H   0  0  0  0  0  0  0  0  0  0  0  0
   -0.6707   67.8346   67.5465 H   0  0  0  0  0  0  0  0  0  0  0  0
    0.4373   68.5581   68.8131 H   0  0  0  0  0  0  0  0  0  0  0  0
    2.3559   67.4459   67.6521 H   0  0  0  0  0  0  0  0  0  0  0  0
    1.2351   67.0035   66.3237 H   0  0  0  0  0  0  0  0  0  0  0  0
    0.7997   69.7362   66.4095 H   0  0  0  0  0  0  0  0  0  0  0  0
    1.8886   67.8309   64.2075 H   0  0  0  0  0  0  0  0  0  0  0  0
    2.0374   69.4972   63.4604 H   0  0  0  0  0  0  0  0  0  0  0  0
    3.7049   67.0273   62.8849 H   0  0  0  0  0  0  0  0  0  0  0  0
    2.6407   67.9603   61.7681 H   0  0  0  0  0  0  0  0  0  0  0  0
    5.0026   68.5171   61.3701 H   0  0  0  0  0  0  0  0  0  0  0  0
    4.1208   69.9358   62.0347 H   0  0  0  0  0  0  0  0  0  0  0  0
    5.9963   68.0261   63.4917 H   0  0  0  0  0  0  0  0  0  0  0  0
    6.1679   69.8230   63.2089 H   0  0  0  0  0  0  0  0  0  0  0  0
    2.3329   70.0011   68.8375 H   0  0  0  0  0  0  0  0  0  0  0  0
    3.9435   70.7974   70.5595 H   0  0  0  0  0  0  0  0  0  0  0  0
    6.3518   71.0607   69.9648 H   0  0  0  0  0  0  0  0  0  0  0  0
    7.1187   70.5462   67.6593 H   0  0  0  0  0  0  0  0  0  0  0  0
  3  2  2  0
  4  2  1  0
  4  1  1  0
  6  5  2  0
  7  6  1  0
  8  7  1  0
  9  8  2  0
  9  2  1  0
 10  9  1  0
 11 10  2  0
 12 10  1  0
 13 12  1  0
 13  7  2  0
 14 13  1  0
 15  5  1  0
 15 14  2  0
 17 16  1  0
 17  5  1  0
 18 15  1  0
 19 18  1  0
 20  1  1  0
 21 20  1  0
 22 21  1  0
 23 22  1  0
 24 23  1  0
 25 24  1  0
 26 25  1  0
 27 26  1  0
 28 27  1  0
 29 28  1  0
 30 29  1  0
 31 26  2  0
 31 30  1  0
 32 31  1  0
 33 32  2  0
 34 33  1  0
 34 25  2  0
 35 34  1  0
 36 35  2  0
 37 36  1  0
 38 37  2  0
 38 33  1  0
  1 39  1  0
  1 40  1  0
  4 41  1  0
  6 42  1  0
  8 43  1  0
 14 44  1  0
 16 45  1  0
 16 46  1  0
 16 47  1  0
 19 48  1  0
 19 49  1  0
 19 50  1  0
 20 51  1  0
 20 52  1  0
 21 53  1  0
 21 54  1  0
 22 55  1  0
 22 56  1  0
 23 57  1  0
 23 58  1  0
 24 59  1  0
 27 60  1  0
 27 61  1  0
 28 62  1  0
 28 63  1  0
 29 64  1  0
 29 65  1  0
 30 66  1  0
 30 67  1  0
 35 68  1  0
 36 69  1  0
 37 70  1  0
 38 71  1  0
M  END
>  <score>  (6) 
-11.116

$$$$
=
     RDKit          3D

 71 75  0  0  0  0  0  0  0  0999 V2000
   -1.2080   66.5770   67.7870 C   0  0  0  0  0  0  0  0  0  0  0  0
    0.4610   65.9550   69.4990 C   0  0  0  0  0  0  0  0  0  0  0  0
    1.2980   66.7360   69.0510 O   0  0  0  0  0  0  0  0  0  0  0  0
   -0.7870   65.8170   68.9450 N   0  0  0  0  0  0  0  0  0  0  0  0
    3.3560   61.4240   72.5400 C   0  0  0  0  0  0  0  0  0  0  0  0
    3.0350   62.2630   71.4620 C   0  0  0  0  0  0  0  0  0  0  0  0
    2.0610   63.2530   71.6070 C   0  0  0  0  0  0  0  0  0  0  0  0
    1.6960   64.1460   70.5190 C   0  0  0  0  0  0  0  0  0  0  0  0
    0.7560   65.0920   70.6860 C   0  0  0  0  0  0  0  0  0  0  0  0
    0.0680   65.2460   71.9880 C   0  0  0  0  0  0  0  0  0  0  0  0
   -0.7980   66.0990   72.1700 O   0  0  0  0  0  0  0  0  0  0  0  0
    0.4360   64.3800   73.0130 O   0  0  0  0  0  0  0  0  0  0  0  0
    1.4200   63.3930   72.8300 C   0  0  0  0  0  0  0  0  0  0  0  0
    1.7180   62.5740   73.9160 C   0  0  0  0  0  0  0  0  0  0  0  0
    2.6900   61.5810   73.7770 C   0  0  0  0  0  0  0  0  0  0  0  0
    3.9380   59.2060   71.8510 C   0  0  0  0  0  0  0  0  0  0  0  0
    4.2960   60.4240   72.4890 O   0  0  0  0  0  0  0  0  0  0  0  0
    3.0650   60.7170   74.7760 O   0  0  0  0  0  0  0  0  0  0  0  0
    2.0380   60.1450   75.5740 C   0  0  0  0  0  0  0  0  0  0  0  0
   -1.3560   68.0640   68.1140 C   0  0  0  0  0  0  0  0  0  0  0  0
   -1.5510   68.9350   66.8690 C   0  0  0  0  0  0  0  0  0  0  0  0
   -0.2460   69.2960   66.1490 C   0  0  0  0  0  0  0  0  0  0  0  0
    0.9410   69.5230   67.0830 C   0  0  0  0  0  0  0  0  0  0  0  0
    1.9510   68.4800   66.8390 N   0  0  0  0  0  0  0  0  0  0  0  0
    3.1640   69.0600   66.3440 C   0  0  0  0  0  0  0  0  0  0  0  0
    3.5470   68.8920   64.9960 C   0  0  0  0  0  0  0  0  0  0  0  0
    2.6430   68.2280   63.9830 C   0  0  0  0  0  0  0  0  0  0  0  0
    3.3420   67.8330   62.6830 C   0  0  0  0  0  0  0  0  0  0  0  0
    4.2050   68.9770   62.1780 C   0  0  0  0  0  0  0  0  0  0  0  0
    5.2950   69.2870   63.1970 C   0  0  0  0  0  0  0  0  0  0  0  0
    4.7770   69.4300   64.6060 C   0  0  0  0  0  0  0  0  0  0  0  0
    5.6200   70.0570   65.4600 N   0  0  0  0  0  0  0  0  0  0  0  0
    5.2600   70.2020   66.7420 C   0  0  0  0  0  0  0  0  0  0  0  0
    4.0380   69.7220   67.2480 C   0  0  0  0  0  0  0  0  0  0  0  0
    3.7350   69.9380   68.6130 C   0  0  0  0  0  0  0  0  0  0  0  0
    4.6260   70.5960   69.4600 C   0  0  0  0  0  0  0  0  0  0  0  0
    5.8320   71.0520   68.9530 C   0  0  0  0  0  0  0  0  0  0  0  0
    6.1340   70.8530   67.6030 C   0  0  0  0  0  0  0  0  0  0  0  0
   -0.4583   66.4593   66.9907 H   0  0  0  0  0  0  0  0  0  0  0  0
   -2.1878   66.1964   67.4628 H   0  0  0  0  0  0  0  0  0  0  0  0
   -1.4473   65.1492   69.3680 H   0  0  0  0  0  0  0  0  0  0  0  0
    3.5526   62.1404   70.4992 H   0  0  0  0  0  0  0  0  0  0  0  0
    2.1967   64.0458   69.5447 H   0  0  0  0  0  0  0  0  0  0  0  0
    1.1932   62.7078   74.8734 H   0  0  0  0  0  0  0  0  0  0  0  0
    3.7143   58.4449   72.6130 H   0  0  0  0  0  0  0  0  0  0  0  0
    3.0496   59.3683   71.2230 H   0  0  0  0  0  0  0  0  0  0  0  0
    4.7730   58.8618   71.2230 H   0  0  0  0  0  0  0  0  0  0  0  0
    2.2818   60.2808   76.6380 H   0  0  0  0  0  0  0  0  0  0  0  0
    1.0815   60.6403   75.3509 H   0  0  0  0  0  0  0  0  0  0  0  0
    1.9555   59.0710   75.3509 H   0  0  0  0  0  0  0  0  0  0  0  0
   -2.2281   68.1930   68.7719 H   0  0  0  0  0  0  0  0  0  0  0  0
   -0.4235   68.3882   68.5992 H   0  0  0  0  0  0  0  0  0  0  0  0
   -2.1959   68.3905   66.1636 H   0  0  0  0  0  0  0  0  0  0  0  0
   -1.9985   69.8805   67.2093 H   0  0  0  0  0  0  0  0  0  0  0  0
    0.0075   68.4753   65.4618 H   0  0  0  0  0  0  0  0  0  0  0  0
   -0.4250   70.2478   65.6275 H   0  0  0  0  0  0  0  0  0  0  0  0
    1.3791   70.5130   66.8883 H   0  0  0  0  0  0  0  0  0  0  0  0
    0.6043   69.4759   68.1291 H   0  0  0  0  0  0  0  0  0  0  0  0
    1.8058   67.4733   67.0015 H   0  0  0  0  0  0  0  0  0  0  0  0
    2.2232   67.3191   64.4388 H   0  0  0  0  0  0  0  0  0  0  0  0
    1.8724   68.9660   63.7157 H   0  0  0  0  0  0  0  0  0  0  0  0
    3.9766   66.9532   62.8653 H   0  0  0  0  0  0  0  0  0  0  0  0
    2.5803   67.5985   61.9248 H   0  0  0  0  0  0  0  0  0  0  0  0
    4.6686   68.6910   61.2223 H   0  0  0  0  0  0  0  0  0  0  0  0
    3.5783   69.8692   62.0323 H   0  0  0  0  0  0  0  0  0  0  0  0
    6.0320   68.4706   63.1780 H   0  0  0  0  0  0  0  0  0  0  0  0
    5.7368   70.2540   62.9146 H   0  0  0  0  0  0  0  0  0  0  0  0
    2.7759   69.5791   69.0147 H   0  0  0  0  0  0  0  0  0  0  0  0
    4.3741   70.7514   70.5194 H   0  0  0  0  0  0  0  0  0  0  0  0
    6.5481   71.5680   69.6095 H   0  0  0  0  0  0  0  0  0  0  0  0
    7.0927   71.2231   67.2106 H   0  0  0  0  0  0  0  0  0  0  0  0
  3  2  2  0
  4  2  1  0
  4  1  1  0
  6  5  2  0
  7  6  1  0
  8  7  1  0
  9  8  2  0
  9  2  1  0
 10  9  1  0
 11 10  2  0
 12 10  1  0
 13 12  1  0
 13  7  2  0
 14 13  1  0
 15  5  1  0
 15 14  2  0
 17 16  1  0
 17  5  1  0
 18 15  1  0
 19 18  1  0
 20  1  1  0
 21 20  1  0
 22 21  1  0
 23 22  1  0
 24 23  1  0
 25 24  1  0
 26 25  1  0
 27 26  1  0
 28 27  1  0
 29 28  1  0
 30 29  1  0
 31 26  2  0
 31 30  1  0
 32 31  1  0
 33 32  2  0
 34 33  1  0
 34 25  2  0
 35 34  1  0
 36 35  2  0
 37 36  1  0
 38 37  2  0
 38 33  1  0
  1 39  1  0
  1 40  1  0
  4 41  1  0
  6 42  1  0
  8 43  1  0
 14 44  1  0
 16 45  1  0
 16 46  1  0
 16 47  1  0
 19 48  1  0
 19 49  1  0
 19 50  1  0
 20 51  1  0
 20 52  1  0
 21 53  1  0
 21 54  1  0
 22 55  1  0
 22 56  1  0
 23 57  1  0
 23 58  1  0
 24 59  1  0
 27 60  1  0
 27 61  1  0
 28 62  1  0
 28 63  1  0
 29 64  1  0
 29 65  1  0
 30 66  1  0
 30 67  1  0
 35 68  1  0
 36 69  1  0
 37 70  1  0
 38 71  1  0
M  END
>  <score>  (7) 
-10.561

$$$$
=
     RDKit          3D

 71 75  0  0  0  0  0  0  0  0999 V2000
    4.3450   63.4460   66.7110 C   0  0  0  0  0  0  0  0  0  0  0  0
    3.7500   63.0890   69.0820 C   0  0  0  0  0  0  0  0  0  0  0  0
    4.8970   63.3130   69.4630 O   0  0  0  0  0  0  0  0  0  0  0  0
    3.3940   63.1360   67.7570 N   0  0  0  0  0  0  0  0  0  0  0  0
    0.8530   59.5040   73.1940 C   0  0  0  0  0  0  0  0  0  0  0  0
    1.8440   59.8850   72.2770 C   0  0  0  0  0  0  0  0  0  0  0  0
    1.7600   61.1150   71.6210 C   0  0  0  0  0  0  0  0  0  0  0  0
    2.7640   61.5520   70.6630 C   0  0  0  0  0  0  0  0  0  0  0  0
    2.6600   62.7420   70.0470 C   0  0  0  0  0  0  0  0  0  0  0  0
    1.5160   63.6380   70.3300 C   0  0  0  0  0  0  0  0  0  0  0  0
    1.3920   64.7290   69.7800 O   0  0  0  0  0  0  0  0  0  0  0  0
    0.5700   63.1970   71.2510 O   0  0  0  0  0  0  0  0  0  0  0  0
    0.6860   61.9500   71.8910 C   0  0  0  0  0  0  0  0  0  0  0  0
   -0.3120   61.5980   72.7960 C   0  0  0  0  0  0  0  0  0  0  0  0
   -0.2350   60.3680   73.4540 C   0  0  0  0  0  0  0  0  0  0  0  0
    2.0490   57.5530   73.8950 C   0  0  0  0  0  0  0  0  0  0  0  0
    0.8510   58.3160   73.8820 O   0  0  0  0  0  0  0  0  0  0  0  0
   -1.1590   59.9170   74.3640 O   0  0  0  0  0  0  0  0  0  0  0  0
   -1.2930   60.6350   75.5820 C   0  0  0  0  0  0  0  0  0  0  0  0
    3.6420   63.8380   65.4100 C   0  0  0  0  0  0  0  0  0  0  0  0
    4.6100   64.3340   64.3310 C   0  0  0  0  0  0  0  0  0  0  0  0
    4.3130   65.7520   63.8300 C   0  0  0  0  0  0  0  0  0  0  0  0
    3.3280   66.5300   64.7020 C   0  0  0  0  0  0  0  0  0  0  0  0
    3.4990   67.9710   64.4530 N   0  0  0  0  0  0  0  0  0  0  0  0
    3.1860   68.7250   65.6300 C   0  0  0  0  0  0  0  0  0  0  0  0
    4.2010   69.3810   66.3590 C   0  0  0  0  0  0  0  0  0  0  0  0
    5.6290   69.4430   65.8650 C   0  0  0  0  0  0  0  0  0  0  0  0
    6.6390   69.8850   66.9240 C   0  0  0  0  0  0  0  0  0  0  0  0
    6.1230   71.1040   67.6710 C   0  0  0  0  0  0  0  0  0  0  0  0
    4.8330   70.7500   68.4010 C   0  0  0  0  0  0  0  0  0  0  0  0
    3.8260   70.0400   67.5330 C   0  0  0  0  0  0  0  0  0  0  0  0
    2.5600   70.0420   68.0140 N   0  0  0  0  0  0  0  0  0  0  0  0
    1.6020   69.4060   67.3270 C   0  0  0  0  0  0  0  0  0  0  0  0
    1.8530   68.7260   66.1220 C   0  0  0  0  0  0  0  0  0  0  0  0
    0.7730   68.0990   65.4550 C   0  0  0  0  0  0  0  0  0  0  0  0
   -0.5190   68.1290   65.9790 C   0  0  0  0  0  0  0  0  0  0  0  0
   -0.7520   68.7920   67.1740 C   0  0  0  0  0  0  0  0  0  0  0  0
    0.3070   69.4230   67.8310 C   0  0  0  0  0  0  0  0  0  0  0  0
    4.9785   64.2827   67.0407 H   0  0  0  0  0  0  0  0  0  0  0  0
    4.9501   62.5478   66.5184 H   0  0  0  0  0  0  0  0  0  0  0  0
    2.4157   62.9439   67.4982 H   0  0  0  0  0  0  0  0  0  0  0  0
    2.6904   59.2124   72.0739 H   0  0  0  0  0  0  0  0  0  0  0  0
    3.6206   60.8990   70.4396 H   0  0  0  0  0  0  0  0  0  0  0  0
   -1.1520   62.2810   72.9907 H   0  0  0  0  0  0  0  0  0  0  0  0
    2.3502   57.3611   74.9354 H   0  0  0  0  0  0  0  0  0  0  0  0
    1.8798   56.5959   73.3798 H   0  0  0  0  0  0  0  0  0  0  0  0
    2.8447   58.1110   73.3798 H   0  0  0  0  0  0  0  0  0  0  0  0
   -1.1644   59.9460   76.4298 H   0  0  0  0  0  0  0  0  0  0  0  0
   -0.5263   61.4223   75.6298 H   0  0  0  0  0  0  0  0  0  0  0  0
   -2.2921   61.0928   75.6298 H   0  0  0  0  0  0  0  0  0  0  0  0
    3.1063   62.9588   65.0226 H   0  0  0  0  0  0  0  0  0  0  0  0
    2.9575   64.6668   65.6433 H   0  0  0  0  0  0  0  0  0  0  0  0
    5.6281   64.3205   64.7473 H   0  0  0  0  0  0  0  0  0  0  0  0
    4.4958   63.6615   63.4680 H   0  0  0  0  0  0  0  0  0  0  0  0
    5.2596   66.3112   63.7954 H   0  0  0  0  0  0  0  0  0  0  0  0
    3.8446   65.6464   62.8403 H   0  0  0  0  0  0  0  0  0  0  0  0
    2.2992   66.2323   64.4512 H   0  0  0  0  0  0  0  0  0  0  0  0
    3.5195   66.3117   65.7630 H   0  0  0  0  0  0  0  0  0  0  0  0
    3.8015   68.3799   63.5574 H   0  0  0  0  0  0  0  0  0  0  0  0
    5.9156   68.4416   65.5114 H   0  0  0  0  0  0  0  0  0  0  0  0
    5.6553   70.1999   65.0673 H   0  0  0  0  0  0  0  0  0  0  0  0
    6.7991   69.0634   67.6376 H   0  0  0  0  0  0  0  0  0  0  0  0
    7.5860   70.1444   66.4281 H   0  0  0  0  0  0  0  0  0  0  0  0
    6.8778   71.4325   68.4006 H   0  0  0  0  0  0  0  0  0  0  0  0
    5.9256   71.9145   66.9540 H   0  0  0  0  0  0  0  0  0  0  0  0
    5.0818   70.0973   69.2507 H   0  0  0  0  0  0  0  0  0  0  0  0
    4.3731   71.6962   68.7221 H   0  0  0  0  0  0  0  0  0  0  0  0
    0.9567   67.5775   64.5040 H   0  0  0  0  0  0  0  0  0  0  0  0
   -1.3449   67.6316   65.4495 H   0  0  0  0  0  0  0  0  0  0  0  0
   -1.7648   68.8210   67.6023 H   0  0  0  0  0  0  0  0  0  0  0  0
    0.1098   69.9496   68.7764 H   0  0  0  0  0  0  0  0  0  0  0  0
  3  2  2  0
  4  2  1  0
  4  1  1  0
  6  5  2  0
  7  6  1  0
  8  7  1  0
  9  8  2  0
  9  2  1  0
 10  9  1  0
 11 10  2  0
 12 10  1  0
 13 12  1  0
 13  7  2  0
 14 13  1  0
 15  5  1  0
 15 14  2  0
 17 16  1  0
 17  5  1  0
 18 15  1  0
 19 18  1  0
 20  1  1  0
 21 20  1  0
 22 21  1  0
 23 22  1  0
 24 23  1  0
 25 24  1  0
 26 25  1  0
 27 26  1  0
 28 27  1  0
 29 28  1  0
 30 29  1  0
 31 26  2  0
 31 30  1  0
 32 31  1  0
 33 32  2  0
 34 33  1  0
 34 25  2  0
 35 34  1  0
 36 35  2  0
 37 36  1  0
 38 37  2  0
 38 33  1  0
  1 39  1  0
  1 40  1  0
  4 41  1  0
  6 42  1  0
  8 43  1  0
 14 44  1  0
 16 45  1  0
 16 46  1  0
 16 47  1  0
 19 48  1  0
 19 49  1  0
 19 50  1  0
 20 51  1  0
 20 52  1  0
 21 53  1  0
 21 54  1  0
 22 55  1  0
 22 56  1  0
 23 57  1  0
 23 58  1  0
 24 59  1  0
 27 60  1  0
 27 61  1  0
 28 62  1  0
 28 63  1  0
 29 64  1  0
 29 65  1  0
 30 66  1  0
 30 67  1  0
 35 68  1  0
 36 69  1  0
 37 70  1  0
 38 71  1  0
M  END
>  <score>  (8) 
-10.434

$$$$
=
     RDKit          3D

 71 75  0  0  0  0  0  0  0  0999 V2000
    0.5930   66.2760   70.1540 C   0  0  0  0  0  0  0  0  0  0  0  0
   -0.7130   67.0780   68.2160 C   0  0  0  0  0  0  0  0  0  0  0  0
   -1.7850   66.8220   68.7590 O   0  0  0  0  0  0  0  0  0  0  0  0
    0.4940   66.8460   68.8280 N   0  0  0  0  0  0  0  0  0  0  0  0
    2.0480   68.6300   62.9130 C   0  0  0  0  0  0  0  0  0  0  0  0
    1.9310   68.1010   64.2070 C   0  0  0  0  0  0  0  0  0  0  0  0
    0.7060   68.1430   64.8760 C   0  0  0  0  0  0  0  0  0  0  0  0
    0.5370   67.6080   66.2170 C   0  0  0  0  0  0  0  0  0  0  0  0
   -0.6540   67.6600   66.8380 C   0  0  0  0  0  0  0  0  0  0  0  0
   -1.8260   68.2670   66.1670 C   0  0  0  0  0  0  0  0  0  0  0  0
   -2.9260   68.3320   66.7100 O   0  0  0  0  0  0  0  0  0  0  0  0
   -1.6380   68.7710   64.8830 O   0  0  0  0  0  0  0  0  0  0  0  0
   -0.3890   68.7130   64.2410 C   0  0  0  0  0  0  0  0  0  0  0  0
   -0.3010   69.2450   62.9570 C   0  0  0  0  0  0  0  0  0  0  0  0
    0.9220   69.2070   62.2830 C   0  0  0  0  0  0  0  0  0  0  0  0
    4.1250   67.5660   62.3790 C   0  0  0  0  0  0  0  0  0  0  0  0
    3.2100   68.6340   62.1810 O   0  0  0  0  0  0  0  0  0  0  0  0
    1.1250   69.7010   61.0190 O   0  0  0  0  0  0  0  0  0  0  0  0
   -0.0060   69.8260   60.1680 C   0  0  0  0  0  0  0  0  0  0  0  0
    1.3960   64.9740   70.1490 C   0  0  0  0  0  0  0  0  0  0  0  0
    0.5340   63.7380   70.4220 C   0  0  0  0  0  0  0  0  0  0  0  0
    0.0540   63.6200   71.8740 C   0  0  0  0  0  0  0  0  0  0  0  0
   -0.2180   62.1870   72.3280 C   0  0  0  0  0  0  0  0  0  0  0  0
    0.7370   61.8280   73.3890 N   0  0  0  0  0  0  0  0  0  0  0  0
    1.5720   60.7430   72.9700 C   0  0  0  0  0  0  0  0  0  0  0  0
    2.7830   60.9850   72.2870 C   0  0  0  0  0  0  0  0  0  0  0  0
    3.3270   62.3820   72.0930 C   0  0  0  0  0  0  0  0  0  0  0  0
    4.4470   62.4800   71.0570 C   0  0  0  0  0  0  0  0  0  0  0  0
    5.4680   61.3760   71.2750 C   0  0  0  0  0  0  0  0  0  0  0  0
    4.8020   60.0170   71.0900 C   0  0  0  0  0  0  0  0  0  0  0  0
    3.5090   59.8730   71.8500 C   0  0  0  0  0  0  0  0  0  0  0  0
    3.0870   58.5960   72.0160 N   0  0  0  0  0  0  0  0  0  0  0  0
    1.9300   58.3710   72.6520 C   0  0  0  0  0  0  0  0  0  0  0  0
    1.1220   59.4080   73.1550 C   0  0  0  0  0  0  0  0  0  0  0  0
   -0.0750   59.0710   73.8300 C   0  0  0  0  0  0  0  0  0  0  0  0
   -0.4720   57.7440   73.9870 C   0  0  0  0  0  0  0  0  0  0  0  0
    0.3250   56.7320   73.4760 C   0  0  0  0  0  0  0  0  0  0  0  0
    1.5140   57.0550   72.8190 C   0  0  0  0  0  0  0  0  0  0  0  0
    1.0899   66.9993   70.8172 H   0  0  0  0  0  0  0  0  0  0  0  0
   -0.4238   66.0517   70.5087 H   0  0  0  0  0  0  0  0  0  0  0  0
    1.3601   67.0864   68.3250 H   0  0  0  0  0  0  0  0  0  0  0  0
    2.8075   67.6514   64.6965 H   0  0  0  0  0  0  0  0  0  0  0  0
    1.3967   67.1538   66.7313 H   0  0  0  0  0  0  0  0  0  0  0  0
   -1.1855   69.6906   62.4784 H   0  0  0  0  0  0  0  0  0  0  0  0
    4.2672   67.4001   63.4571 H   0  0  0  0  0  0  0  0  0  0  0  0
    3.7262   66.6510   61.9166 H   0  0  0  0  0  0  0  0  0  0  0  0
    5.0903   67.8197   61.9166 H   0  0  0  0  0  0  0  0  0  0  0  0
   -0.9152   69.9265   60.7789 H   0  0  0  0  0  0  0  0  0  0  0  0
    0.1095   70.7168   59.5331 H   0  0  0  0  0  0  0  0  0  0  0  0
   -0.0878   68.9314   59.5331 H   0  0  0  0  0  0  0  0  0  0  0  0
    1.8713   64.8591   69.1637 H   0  0  0  0  0  0  0  0  0  0  0  0
    2.1385   65.0424   70.9577 H   0  0  0  0  0  0  0  0  0  0  0  0
   -0.3495   63.7813   69.7681 H   0  0  0  0  0  0  0  0  0  0  0  0
    1.1656   62.8596   70.2234 H   0  0  0  0  0  0  0  0  0  0  0  0
    0.8268   64.0488   72.5289 H   0  0  0  0  0  0  0  0  0  0  0  0
   -0.9031   64.1587   71.9358 H   0  0  0  0  0  0  0  0  0  0  0  0
   -1.2446   62.1122   72.7158 H   0  0  0  0  0  0  0  0  0  0  0  0
   -0.1012   61.5003   71.4767 H   0  0  0  0  0  0  0  0  0  0  0  0
    0.7964   62.2930   74.3061 H   0  0  0  0  0  0  0  0  0  0  0  0
    2.5006   63.0323   71.7702 H   0  0  0  0  0  0  0  0  0  0  0  0
    3.7598   62.6894   73.0565 H   0  0  0  0  0  0  0  0  0  0  0  0
    4.0178   62.3829   70.0489 H   0  0  0  0  0  0  0  0  0  0  0  0
    4.9467   63.4542   71.1627 H   0  0  0  0  0  0  0  0  0  0  0  0
    6.2854   61.4848   70.5470 H   0  0  0  0  0  0  0  0  0  0  0  0
    5.8709   61.4485   72.2960 H   0  0  0  0  0  0  0  0  0  0  0  0
    4.5943   59.8739   70.0193 H   0  0  0  0  0  0  0  0  0  0  0  0
    5.4956   59.2602   71.4852 H   0  0  0  0  0  0  0  0  0  0  0  0
   -0.7060   59.8735   74.2397 H   0  0  0  0  0  0  0  0  0  0  0  0
   -1.4084   57.5026   74.5112 H   0  0  0  0  0  0  0  0  0  0  0  0
    0.0227   55.6802   73.5873 H   0  0  0  0  0  0  0  0  0  0  0  0
    2.1408   56.2432   72.4213 H   0  0  0  0  0  0  0  0  0  0  0  0
  3  2  2  0
  4  2  1  0
  4  1  1  0
  6  5  2  0
  7  6  1  0
  8  7  1  0
  9  8  2  0
  9  2  1  0
 10  9  1  0
 11 10  2  0
 12 10  1  0
 13 12  1  0
 13  7  2  0
 14 13  1  0
 15  5  1  0
 15 14  2  0
 17 16  1  0
 17  5  1  0
 18 15  1  0
 19 18  1  0
 20  1  1  0
 21 20  1  0
 22 21  1  0
 23 22  1  0
 24 23  1  0
 25 24  1  0
 26 25  1  0
 27 26  1  0
 28 27  1  0
 29 28  1  0
 30 29  1  0
 31 26  2  0
 31 30  1  0
 32 31  1  0
 33 32  2  0
 34 33  1  0
 34 25  2  0
 35 34  1  0
 36 35  2  0
 37 36  1  0
 38 37  2  0
 38 33  1  0
  1 39  1  0
  1 40  1  0
  4 41  1  0
  6 42  1  0
  8 43  1  0
 14 44  1  0
 16 45  1  0
 16 46  1  0
 16 47  1  0
 19 48  1  0
 19 49  1  0
 19 50  1  0
 20 51  1  0
 20 52  1  0
 21 53  1  0
 21 54  1  0
 22 55  1  0
 22 56  1  0
 23 57  1  0
 23 58  1  0
 24 59  1  0
 27 60  1  0
 27 61  1  0
 28 62  1  0
 28 63  1  0
 29 64  1  0
 29 65  1  0
 30 66  1  0
 30 67  1  0
 35 68  1  0
 36 69  1  0
 37 70  1  0
 38 71  1  0
M  END
>  <score>  (9) 
-10.188

$$$$
