=
     RDKit          3D

 62 64  0  0  0  0  0  0  0  0999 V2000
    1.7620   67.8420   68.3170 C   0  0  1  0  0  0  0  0  0  0  0  0
    1.4960   66.6380   69.2390 C   0  0  0  0  0  0  0  0  0  0  0  0
    0.0990   66.7980   69.8140 N   0  0  1  0  0  4  0  0  0  0  0  0
   -0.9660   66.6390   68.7480 C   0  0  0  0  0  0  0  0  0  0  0  0
   -0.4220   66.9360   67.3540 C   0  0  0  0  0  0  0  0  0  0  0  0
    0.5600   68.1090   67.3740 C   0  0  2  0  0  0  0  0  0  0  0  0
    0.9910   68.4480   66.0240 N   0  0  0  0  0  0  0  0  0  0  0  0
    1.8400   67.6250   65.3130 C   0  0  0  0  0  0  0  0  0  0  0  0
    2.2270   66.5590   65.7850 O   0  0  0  0  0  0  0  0  0  0  0  0
    2.2930   68.0740   63.9560 C   0  0  0  0  0  0  0  0  0  0  0  0
    3.6770   68.2570   63.8040 C   0  0  0  0  0  0  0  0  0  0  0  0
    4.2090   68.6780   62.5870 C   0  0  0  0  0  0  0  0  0  0  0  0
    5.9190   68.9040   62.4680 Cl  0  0  0  0  0  0  0  0  0  0  0  0
    3.3800   68.8900   61.4760 C   0  0  0  0  0  0  0  0  0  0  0  0
    1.9950   68.7520   61.6440 C   0  0  0  0  0  0  0  0  0  0  0  0
    1.4360   68.3290   62.8630 C   0  0  0  0  0  0  0  0  0  0  0  0
    3.8700   69.4400   60.2800 N   0  0  0  0  0  0  0  0  0  0  0  0
    0.0840   68.1680   63.0550 O   0  0  0  0  0  0  0  0  0  0  0  0
   -0.7590   69.2870   62.7820 C   0  0  0  0  0  0  0  0  0  0  0  0
    2.9900   69.8440   68.7860 C   0  0  0  0  0  0  0  0  0  0  0  0
    1.9440   68.9650   69.2030 O   0  0  0  0  0  0  0  0  0  0  0  0
   -0.1820   65.9480   71.0340 C   0  0  0  0  0  0  0  0  0  0  0  0
    0.9010   64.8980   71.2260 C   0  0  0  0  0  0  0  0  0  0  0  0
    0.4170   63.5180   70.7820 C   0  0  0  0  0  0  0  0  0  0  0  0
    1.3030   63.0770   69.7580 O   0  0  0  0  0  0  0  0  0  0  0  0
    2.5480   62.6600   70.1430 C   0  0  0  0  0  0  0  0  0  0  0  0
    2.6230   61.3070   70.4950 C   0  0  0  0  0  0  0  0  0  0  0  0
    3.8330   60.7470   70.9080 C   0  0  0  0  0  0  0  0  0  0  0  0
    4.9670   61.5460   70.9680 C   0  0  0  0  0  0  0  0  0  0  0  0
    4.9100   62.8910   70.6220 C   0  0  0  0  0  0  0  0  0  0  0  0
    3.6970   63.4530   70.2080 C   0  0  0  0  0  0  0  0  0  0  0  0
    6.1300   61.0160   71.3640 F   0  0  0  0  0  0  0  0  0  0  0  0
    2.6357   67.6623   67.6733 H   0  0  0  0  0  0  0  0  0  0  0  0
    1.5593   65.7032   68.6626 H   0  0  0  0  0  0  0  0  0  0  0  0
    2.2429   66.5973   70.0456 H   0  0  0  0  0  0  0  0  0  0  0  0
    0.0601   67.7673   70.1603 H   0  0  0  0  0  0  0  0  0  0  0  0
   -1.3410   65.6051   68.7709 H   0  0  0  0  0  0  0  0  0  0  0  0
   -1.7718   67.3570   68.9604 H   0  0  0  0  0  0  0  0  0  0  0  0
    0.0957   66.0427   66.9745 H   0  0  0  0  0  0  0  0  0  0  0  0
   -1.2674   67.2044   66.7034 H   0  0  0  0  0  0  0  0  0  0  0  0
    0.0300   68.9815   67.7836 H   0  0  0  0  0  0  0  0  0  0  0  0
    0.6548   69.3202   65.5915 H   0  0  0  0  0  0  0  0  0  0  0  0
    4.3480   68.0660   64.6545 H   0  0  0  0  0  0  0  0  0  0  0  0
    1.3279   68.9807   60.7998 H   0  0  0  0  0  0  0  0  0  0  0  0
    3.2357   69.5835   59.4813 H   0  0  0  0  0  0  0  0  0  0  0  0
    4.8636   69.6998   60.2017 H   0  0  0  0  0  0  0  0  0  0  0  0
   -1.0949   69.7329   63.7298 H   0  0  0  0  0  0  0  0  0  0  0  0
   -0.1985   70.0357   62.2029 H   0  0  0  0  0  0  0  0  0  0  0  0
   -1.6332   68.9548   62.2029 H   0  0  0  0  0  0  0  0  0  0  0  0
    3.4903   70.2644   69.6709 H   0  0  0  0  0  0  0  0  0  0  0  0
    3.7204   69.2846   68.1830 H   0  0  0  0  0  0  0  0  0  0  0  0
    2.5648   70.6598   68.1830 H   0  0  0  0  0  0  0  0  0  0  0  0
   -0.2179   66.5949   71.9230 H   0  0  0  0  0  0  0  0  0  0  0  0
   -1.1454   65.4366   70.8913 H   0  0  0  0  0  0  0  0  0  0  0  0
    1.7822   65.1781   70.6301 H   0  0  0  0  0  0  0  0  0  0  0  0
    1.1552   64.8509   72.2952 H   0  0  0  0  0  0  0  0  0  0  0  0
    0.4413   62.8180   71.6302 H   0  0  0  0  0  0  0  0  0  0  0  0
   -0.6182   63.5644   70.4130 H   0  0  0  0  0  0  0  0  0  0  0  0
    1.7206   60.6799   70.4457 H   0  0  0  0  0  0  0  0  0  0  0  0
    3.8876   59.6834   71.1832 H   0  0  0  0  0  0  0  0  0  0  0  0
    5.8163   63.5123   70.6735 H   0  0  0  0  0  0  0  0  0  0  0  0
    3.6480   64.5172   69.9342 H   0  0  0  0  0  0  0  0  0  0  0  0
  2  1  1  0
  3  2  1  0
  4  3  1  0
  5  4  1  0
  6  5  1  0
  6  1  1  0
  7  6  1  0
  8  7  1  0
  9  8  2  0
 10  8  1  0
 11 10  2  0
 12 11  1  0
 13 12  1  0
 14 12  2  0
 15 14  1  0
 16 15  2  0
 16 10  1  0
 17 14  1  0
 18 16  1  0
 19 18  1  0
 21 20  1  0
 21  1  1  0
 22  3  1  0
 23 22  1  0
 24 23  1  0
 25 24  1  0
 26 25  1  0
 27 26  2  0
 28 27  1  0
 29 28  2  0
 30 29  1  0
 31 30  2  0
 31 26  1  0
 32 29  1  0
  1 33  1  6
  2 34  1  0
  2 35  1  0
  3 36  1  1
  4 37  1  0
  4 38  1  0
  5 39  1  0
  5 40  1  0
  6 41  1  1
  7 42  1  0
 11 43  1  0
 15 44  1  0
 17 45  1  0
 17 46  1  0
 19 47  1  0
 19 48  1  0
 19 49  1  0
 20 50  1  0
 20 51  1  0
 20 52  1  0
 22 53  1  0
 22 54  1  0
 23 55  1  0
 23 56  1  0
 24 57  1  0
 24 58  1  0
 27 59  1  0
 28 60  1  0
 30 61  1  0
 31 62  1  0
M  CHG  1   3   1
M  END
>  <score>  (1) 
-9.432

$$$$
=
     RDKit          3D

 62 64  0  0  0  0  0  0  0  0999 V2000
    2.5530   63.6000   70.4870 C   0  0  1  0  0  0  0  0  0  0  0  0
    2.2050   65.0830   70.2660 C   0  0  0  0  0  0  0  0  0  0  0  0
    0.7050   65.1770   70.0450 N   0  0  1  0  0  4  0  0  0  0  0  0
   -0.0670   64.8420   71.3050 C   0  0  0  0  0  0  0  0  0  0  0  0
    0.7480   63.9700   72.2540 C   0  0  0  0  0  0  0  0  0  0  0  0
    1.5770   62.9350   71.4920 C   0  0  2  0  0  0  0  0  0  0  0  0
    2.2690   62.0420   72.4130 N   0  0  0  0  0  0  0  0  0  0  0  0
    1.6610   60.9070   72.9060 C   0  0  0  0  0  0  0  0  0  0  0  0
    0.5280   60.5930   72.5510 O   0  0  0  0  0  0  0  0  0  0  0  0
    2.4120   60.0740   73.9020 C   0  0  0  0  0  0  0  0  0  0  0  0
    1.9570   60.1500   75.2280 C   0  0  0  0  0  0  0  0  0  0  0  0
    2.5840   59.4220   76.2380 C   0  0  0  0  0  0  0  0  0  0  0  0
    1.9890   59.5730   77.8540 Cl  0  0  0  0  0  0  0  0  0  0  0  0
    3.6570   58.5670   75.9460 C   0  0  0  0  0  0  0  0  0  0  0  0
    4.1380   58.5300   74.6300 C   0  0  0  0  0  0  0  0  0  0  0  0
    3.5220   59.2570   73.5960 C   0  0  0  0  0  0  0  0  0  0  0  0
    4.3900   57.9270   76.9590 N   0  0  0  0  0  0  0  0  0  0  0  0
    3.9600   59.2290   72.2920 O   0  0  0  0  0  0  0  0  0  0  0  0
    3.3600   58.2760   71.4150 C   0  0  0  0  0  0  0  0  0  0  0  0
    3.6690   62.7120   68.5620 C   0  0  0  0  0  0  0  0  0  0  0  0
    2.4150   62.9810   69.1910 O   0  0  0  0  0  0  0  0  0  0  0  0
    0.2390   66.4730   69.4170 C   0  0  0  0  0  0  0  0  0  0  0  0
    1.4230   67.3510   69.0410 C   0  0  0  0  0  0  0  0  0  0  0  0
    1.1040   68.2140   67.8220 C   0  0  0  0  0  0  0  0  0  0  0  0
    1.5540   69.5330   68.1180 O   0  0  0  0  0  0  0  0  0  0  0  0
    2.8920   69.7850   67.9780 C   0  0  0  0  0  0  0  0  0  0  0  0
    3.4250   69.4200   66.7370 C   0  0  0  0  0  0  0  0  0  0  0  0
    4.7780   69.6200   66.4580 C   0  0  0  0  0  0  0  0  0  0  0  0
    5.5950   70.1860   67.4270 C   0  0  0  0  0  0  0  0  0  0  0  0
    5.0820   70.5550   68.6660 C   0  0  0  0  0  0  0  0  0  0  0  0
    3.7260   70.3540   68.9450 C   0  0  0  0  0  0  0  0  0  0  0  0
    6.8930   70.3800   67.1670 F   0  0  0  0  0  0  0  0  0  0  0  0
    3.5640   63.4877   70.9055 H   0  0  0  0  0  0  0  0  0  0  0  0
    2.4910   65.6709   71.1507 H   0  0  0  0  0  0  0  0  0  0  0  0
    2.7484   65.4810   69.3963 H   0  0  0  0  0  0  0  0  0  0  0  0
    0.4916   64.4576   69.3395 H   0  0  0  0  0  0  0  0  0  0  0  0
   -0.3315   65.7775   71.8197 H   0  0  0  0  0  0  0  0  0  0  0  0
   -0.9681   64.2817   71.0149 H   0  0  0  0  0  0  0  0  0  0  0  0
    1.4254   64.6119   72.8364 H   0  0  0  0  0  0  0  0  0  0  0  0
    0.0508   63.4346   72.9152 H   0  0  0  0  0  0  0  0  0  0  0  0
    0.8819   62.3255   70.8959 H   0  0  0  0  0  0  0  0  0  0  0  0
    3.2326   62.2636   72.7016 H   0  0  0  0  0  0  0  0  0  0  0  0
    1.0969   60.7906   75.4725 H   0  0  0  0  0  0  0  0  0  0  0  0
    5.0211   57.9158   74.3999 H   0  0  0  0  0  0  0  0  0  0  0  0
    5.1730   57.3046   76.7133 H   0  0  0  0  0  0  0  0  0  0  0  0
    4.1445   58.0801   77.9475 H   0  0  0  0  0  0  0  0  0  0  0  0
    2.8664   57.4920   72.0080 H   0  0  0  0  0  0  0  0  0  0  0  0
    2.6156   58.7793   70.7806 H   0  0  0  0  0  0  0  0  0  0  0  0
    4.1357   57.8223   70.7806 H   0  0  0  0  0  0  0  0  0  0  0  0
    4.4374   62.5472   69.3317 H   0  0  0  0  0  0  0  0  0  0  0  0
    3.5793   61.8127   67.9350 H   0  0  0  0  0  0  0  0  0  0  0  0
    3.9560   63.5690   67.9350 H   0  0  0  0  0  0  0  0  0  0  0  0
   -0.3426   66.2456   68.5114 H   0  0  0  0  0  0  0  0  0  0  0  0
   -0.3816   67.0137   70.1467 H   0  0  0  0  0  0  0  0  0  0  0  0
    1.6684   68.0058   69.8901 H   0  0  0  0  0  0  0  0  0  0  0  0
    2.2752   66.7006   68.7946 H   0  0  0  0  0  0  0  0  0  0  0  0
    1.6281   67.8256   66.9363 H   0  0  0  0  0  0  0  0  0  0  0  0
    0.0255   68.2058   67.6058 H   0  0  0  0  0  0  0  0  0  0  0  0
    2.7718   68.9713   65.9741 H   0  0  0  0  0  0  0  0  0  0  0  0
    5.1924   69.3321   65.4806 H   0  0  0  0  0  0  0  0  0  0  0  0
    5.7406   71.0036   69.4243 H   0  0  0  0  0  0  0  0  0  0  0  0
    3.3165   70.6433   69.9241 H   0  0  0  0  0  0  0  0  0  0  0  0
  2  1  1  0
  3  2  1  0
  4  3  1  0
  5  4  1  0
  6  5  1  0
  6  1  1  0
  7  6  1  0
  8  7  1  0
  9  8  2  0
 10  8  1  0
 11 10  2  0
 12 11  1  0
 13 12  1  0
 14 12  2  0
 15 14  1  0
 16 15  2  0
 16 10  1  0
 17 14  1  0
 18 16  1  0
 19 18  1  0
 21 20  1  0
 21  1  1  0
 22  3  1  0
 23 22  1  0
 24 23  1  0
 25 24  1  0
 26 25  1  0
 27 26  2  0
 28 27  1  0
 29 28  2  0
 30 29  1  0
 31 30  2  0
 31 26  1  0
 32 29  1  0
  1 33  1  1
  2 34  1  0
  2 35  1  0
  3 36  1  6
  4 37  1  0
  4 38  1  0
  5 39  1  0
  5 40  1  0
  6 41  1  6
  7 42  1  0
 11 43  1  0
 15 44  1  0
 17 45  1  0
 17 46  1  0
 19 47  1  0
 19 48  1  0
 19 49  1  0
 20 50  1  0
 20 51  1  0
 20 52  1  0
 22 53  1  0
 22 54  1  0
 23 55  1  0
 23 56  1  0
 24 57  1  0
 24 58  1  0
 27 59  1  0
 28 60  1  0
 30 61  1  0
 31 62  1  0
M  CHG  1   3   1
M  END
>  <score>  (2) 
-9.2

$$$$
=
     RDKit          3D

 62 64  0  0  0  0  0  0  0  0999 V2000
    2.3530   63.2610   70.6110 C   0  0  1  0  0  0  0  0  0  0  0  0
    2.5310   64.7890   70.5750 C   0  0  0  0  0  0  0  0  0  0  0  0
    1.1960   65.4000   70.1880 N   0  0  1  0  0  4  0  0  0  0  0  0
    0.1590   65.2150   71.2780 C   0  0  0  0  0  0  0  0  0  0  0  0
    0.4890   64.0280   72.1780 C   0  0  0  0  0  0  0  0  0  0  0  0
    1.0660   62.8600   71.3760 C   0  0  2  0  0  0  0  0  0  0  0  0
    1.2790   61.6990   72.2310 N   0  0  0  0  0  0  0  0  0  0  0  0
    0.2200   61.0180   72.7950 C   0  0  0  0  0  0  0  0  0  0  0  0
   -0.9390   61.3490   72.5600 O   0  0  0  0  0  0  0  0  0  0  0  0
    0.5220   59.8730   73.7160 C   0  0  0  0  0  0  0  0  0  0  0  0
   -0.0200   58.6320   73.3440 C   0  0  0  0  0  0  0  0  0  0  0  0
    0.1910   57.5000   74.1280 C   0  0  0  0  0  0  0  0  0  0  0  0
   -0.5180   56.0060   73.6280 Cl  0  0  0  0  0  0  0  0  0  0  0  0
    0.9820   57.5660   75.2840 C   0  0  0  0  0  0  0  0  0  0  0  0
    1.4820   58.8150   75.6780 C   0  0  0  0  0  0  0  0  0  0  0  0
    1.2800   59.9710   74.9020 C   0  0  0  0  0  0  0  0  0  0  0  0
    1.1020   56.4760   76.1630 N   0  0  0  0  0  0  0  0  0  0  0  0
    1.7710   61.2070   75.2520 O   0  0  0  0  0  0  0  0  0  0  0  0
    1.1010   61.9120   76.2960 C   0  0  0  0  0  0  0  0  0  0  0  0
    3.4680   62.3510   68.6960 C   0  0  0  0  0  0  0  0  0  0  0  0
    2.2450   62.8590   69.2300 O   0  0  0  0  0  0  0  0  0  0  0  0
    1.2720   66.8340   69.7100 C   0  0  0  0  0  0  0  0  0  0  0  0
    0.4530   67.0290   68.4440 C   0  0  0  0  0  0  0  0  0  0  0  0
    0.5060   68.4790   67.9690 C   0  0  0  0  0  0  0  0  0  0  0  0
    1.3520   68.5100   66.8230 O   0  0  0  0  0  0  0  0  0  0  0  0
    2.5870   69.0800   66.9690 C   0  0  0  0  0  0  0  0  0  0  0  0
    3.4140   68.9720   65.8450 C   0  0  0  0  0  0  0  0  0  0  0  0
    4.7020   69.5090   65.8570 C   0  0  0  0  0  0  0  0  0  0  0  0
    5.1600   70.1540   66.9970 C   0  0  0  0  0  0  0  0  0  0  0  0
    4.3510   70.2720   68.1220 C   0  0  0  0  0  0  0  0  0  0  0  0
    3.0600   69.7330   68.1110 C   0  0  0  0  0  0  0  0  0  0  0  0
    6.3940   70.6710   67.0150 F   0  0  0  0  0  0  0  0  0  0  0  0
    3.1932   62.7762   71.1296 H   0  0  0  0  0  0  0  0  0  0  0  0
    2.8368   65.1541   71.5666 H   0  0  0  0  0  0  0  0  0  0  0  0
    3.3082   65.0694   69.8488 H   0  0  0  0  0  0  0  0  0  0  0  0
    0.8878   64.8686   69.3612 H   0  0  0  0  0  0  0  0  0  0  0  0
    0.1206   66.1272   71.8915 H   0  0  0  0  0  0  0  0  0  0  0  0
   -0.8113   65.0207   70.7976 H   0  0  0  0  0  0  0  0  0  0  0  0
    1.2266   64.3440   72.9304 H   0  0  0  0  0  0  0  0  0  0  0  0
   -0.4409   63.6905   72.6591 H   0  0  0  0  0  0  0  0  0  0  0  0
    0.3248   62.5810   70.6126 H   0  0  0  0  0  0  0  0  0  0  0  0
    2.2404   61.3802   72.4181 H   0  0  0  0  0  0  0  0  0  0  0  0
   -0.6175   58.5530   72.4238 H   0  0  0  0  0  0  0  0  0  0  0  0
    2.0471   58.8933   76.6185 H   0  0  0  0  0  0  0  0  0  0  0  0
    1.6909   56.5553   77.0043 H   0  0  0  0  0  0  0  0  0  0  0  0
    0.6011   55.5979   75.9659 H   0  0  0  0  0  0  0  0  0  0  0  0
    1.4516   61.5431   77.2712 H   0  0  0  0  0  0  0  0  0  0  0  0
    1.3185   62.9869   76.2108 H   0  0  0  0  0  0  0  0  0  0  0  0
    0.0164   61.7495   76.2108 H   0  0  0  0  0  0  0  0  0  0  0  0
    4.1402   62.0718   69.5207 H   0  0  0  0  0  0  0  0  0  0  0  0
    3.2584   61.4655   68.0780 H   0  0  0  0  0  0  0  0  0  0  0  0
    3.9475   63.1244   68.0780 H   0  0  0  0  0  0  0  0  0  0  0  0
    0.8821   67.4968   70.4966 H   0  0  0  0  0  0  0  0  0  0  0  0
    2.3223   67.0753   69.4893 H   0  0  0  0  0  0  0  0  0  0  0  0
    0.8541   66.3777   67.6535 H   0  0  0  0  0  0  0  0  0  0  0  0
   -0.5939   66.7730   68.6640 H   0  0  0  0  0  0  0  0  0  0  0  0
   -0.5032   68.8269   67.7034 H   0  0  0  0  0  0  0  0  0  0  0  0
    0.8921   69.1381   68.7606 H   0  0  0  0  0  0  0  0  0  0  0  0
    3.0455   68.4593   64.9442 H   0  0  0  0  0  0  0  0  0  0  0  0
    5.3481   69.4218   64.9710 H   0  0  0  0  0  0  0  0  0  0  0  0
    4.7253   70.7880   69.0185 H   0  0  0  0  0  0  0  0  0  0  0  0
    2.4180   69.8229   68.9997 H   0  0  0  0  0  0  0  0  0  0  0  0
  2  1  1  0
  3  2  1  0
  4  3  1  0
  5  4  1  0
  6  5  1  0
  6  1  1  0
  7  6  1  0
  8  7  1  0
  9  8  2  0
 10  8  1  0
 11 10  2  0
 12 11  1  0
 13 12  1  0
 14 12  2  0
 15 14  1  0
 16 15  2  0
 16 10  1  0
 17 14  1  0
 18 16  1  0
 19 18  1  0
 21 20  1  0
 21  1  1  0
 22  3  1  0
 23 22  1  0
 24 23  1  0
 25 24  1  0
 26 25  1  0
 27 26  2  0
 28 27  1  0
 29 28  2  0
 30 29  1  0
 31 30  2  0
 31 26  1  0
 32 29  1  0
  1 33  1  1
  2 34  1  0
  2 35  1  0
  3 36  1  6
  4 37  1  0
  4 38  1  0
  5 39  1  0
  5 40  1  0
  6 41  1  6
  7 42  1  0
 11 43  1  0
 15 44  1  0
 17 45  1  0
 17 46  1  0
 19 47  1  0
 19 48  1  0
 19 49  1  0
 20 50  1  0
 20 51  1  0
 20 52  1  0
 22 53  1  0
 22 54  1  0
 23 55  1  0
 23 56  1  0
 24 57  1  0
 24 58  1  0
 27 59  1  0
 28 60  1  0
 30 61  1  0
 31 62  1  0
M  CHG  1   3   1
M  END
>  <score>  (3) 
-8.812

$$$$
=
     RDKit          3D

 62 64  0  0  0  0  0  0  0  0999 V2000
   -0.0220   63.3730   71.6580 C   0  0  1  0  0  0  0  0  0  0  0  0
    0.0810   64.3980   70.5140 C   0  0  0  0  0  0  0  0  0  0  0  0
    1.4060   65.1230   70.6620 N   0  0  1  0  0  4  0  0  0  0  0  0
    2.5800   64.2050   70.3880 C   0  0  0  0  0  0  0  0  0  0  0  0
    2.2160   62.7400   70.6050 C   0  0  0  0  0  0  0  0  0  0  0  0
    1.2930   62.5650   71.8120 C   0  0  2  0  0  0  0  0  0  0  0  0
    1.0370   61.1530   72.0700 N   0  0  0  0  0  0  0  0  0  0  0  0
    1.6700   60.4850   73.0980 C   0  0  0  0  0  0  0  0  0  0  0  0
    2.4410   61.0730   73.8520 O   0  0  0  0  0  0  0  0  0  0  0  0
    1.4060   59.0170   73.2590 C   0  0  0  0  0  0  0  0  0  0  0  0
    0.2290   58.6820   73.9500 C   0  0  0  0  0  0  0  0  0  0  0  0
   -0.1140   57.3490   74.1630 C   0  0  0  0  0  0  0  0  0  0  0  0
   -1.5640   57.0000   75.0360 Cl  0  0  0  0  0  0  0  0  0  0  0  0
    0.6850   56.3120   73.6600 C   0  0  0  0  0  0  0  0  0  0  0  0
    1.8820   56.6500   73.0130 C   0  0  0  0  0  0  0  0  0  0  0  0
    2.2490   57.9890   72.7870 C   0  0  0  0  0  0  0  0  0  0  0  0
    0.4360   54.9660   73.9730 N   0  0  0  0  0  0  0  0  0  0  0  0
    3.4080   58.3530   72.1410 O   0  0  0  0  0  0  0  0  0  0  0  0
    3.4120   58.3040   70.7150 C   0  0  0  0  0  0  0  0  0  0  0  0
    0.6790   63.8780   73.8920 C   0  0  0  0  0  0  0  0  0  0  0  0
   -0.2550   64.1550   72.8470 O   0  0  0  0  0  0  0  0  0  0  0  0
    1.5050   66.4220   69.8920 C   0  0  0  0  0  0  0  0  0  0  0  0
    0.2270   66.6900   69.1120 C   0  0  0  0  0  0  0  0  0  0  0  0
    0.4320   67.7960   68.0790 C   0  0  0  0  0  0  0  0  0  0  0  0
    0.8870   67.1680   66.8840 O   0  0  0  0  0  0  0  0  0  0  0  0
    1.9030   67.7790   66.2020 C   0  0  0  0  0  0  0  0  0  0  0  0
    2.5750   68.7700   66.9270 C   0  0  0  0  0  0  0  0  0  0  0  0
    3.6340   69.4760   66.3530 C   0  0  0  0  0  0  0  0  0  0  0  0
    4.0170   69.1870   65.0510 C   0  0  0  0  0  0  0  0  0  0  0  0
    3.3610   68.2050   64.3160 C   0  0  0  0  0  0  0  0  0  0  0  0
    2.2990   67.4980   64.8910 C   0  0  0  0  0  0  0  0  0  0  0  0
    5.0310   69.8590   64.4930 F   0  0  0  0  0  0  0  0  0  0  0  0
   -0.8221   62.6430   71.4660 H   0  0  0  0  0  0  0  0  0  0  0  0
    0.0429   63.8814   69.5436 H   0  0  0  0  0  0  0  0  0  0  0  0
   -0.7554   65.1110   70.5591 H   0  0  0  0  0  0  0  0  0  0  0  0
    1.4473   65.4060   71.6515 H   0  0  0  0  0  0  0  0  0  0  0  0
    2.9026   64.3411   69.3452 H   0  0  0  0  0  0  0  0  0  0  0  0
    3.3875   64.4641   71.0886 H   0  0  0  0  0  0  0  0  0  0  0  0
    1.7058   62.3616   69.7069 H   0  0  0  0  0  0  0  0  0  0  0  0
    3.1426   62.1784   70.7946 H   0  0  0  0  0  0  0  0  0  0  0  0
    1.8116   62.9763   72.6906 H   0  0  0  0  0  0  0  0  0  0  0  0
    0.3700   60.6438   71.4727 H   0  0  0  0  0  0  0  0  0  0  0  0
   -0.4277   59.4802   74.3263 H   0  0  0  0  0  0  0  0  0  0  0  0
    2.5521   55.8466   72.6730 H   0  0  0  0  0  0  0  0  0  0  0  0
    1.0413   54.2271   73.5876 H   0  0  0  0  0  0  0  0  0  0  0  0
   -0.3520   54.7175   74.5880 H   0  0  0  0  0  0  0  0  0  0  0  0
    3.4974   57.2584   70.3843 H   0  0  0  0  0  0  0  0  0  0  0  0
    2.4757   58.7349   70.3307 H   0  0  0  0  0  0  0  0  0  0  0  0
    4.2660   58.8810   70.3307 H   0  0  0  0  0  0  0  0  0  0  0  0
    0.1914   64.0226   74.8674 H   0  0  0  0  0  0  0  0  0  0  0  0
    1.0270   62.8380   73.8066 H   0  0  0  0  0  0  0  0  0  0  0  0
    1.5377   64.5601   73.8066 H   0  0  0  0  0  0  0  0  0  0  0  0
    1.6752   67.2475   70.5989 H   0  0  0  0  0  0  0  0  0  0  0  0
    2.3410   66.3460   69.1811 H   0  0  0  0  0  0  0  0  0  0  0  0
   -0.0778   65.7682   68.5950 H   0  0  0  0  0  0  0  0  0  0  0  0
   -0.5511   67.0136   69.8190 H   0  0  0  0  0  0  0  0  0  0  0  0
   -0.5170   68.3202   67.8929 H   0  0  0  0  0  0  0  0  0  0  0  0
    1.1618   68.5375   68.4362 H   0  0  0  0  0  0  0  0  0  0  0  0
    2.2659   68.9946   67.9585 H   0  0  0  0  0  0  0  0  0  0  0  0
    4.1594   70.2534   66.9271 H   0  0  0  0  0  0  0  0  0  0  0  0
    3.6762   67.9847   63.2854 H   0  0  0  0  0  0  0  0  0  0  0  0
    1.7765   66.7222   64.3122 H   0  0  0  0  0  0  0  0  0  0  0  0
  2  1  1  0
  3  2  1  0
  4  3  1  0
  5  4  1  0
  6  5  1  0
  6  1  1  0
  7  6  1  0
  8  7  1  0
  9  8  2  0
 10  8  1  0
 11 10  2  0
 12 11  1  0
 13 12  1  0
 14 12  2  0
 15 14  1  0
 16 15  2  0
 16 10  1  0
 17 14  1  0
 18 16  1  0
 19 18  1  0
 21 20  1  0
 21  1  1  0
 22  3  1  0
 23 22  1  0
 24 23  1  0
 25 24  1  0
 26 25  1  0
 27 26  2  0
 28 27  1  0
 29 28  2  0
 30 29  1  0
 31 30  2  0
 31 26  1  0
 32 29  1  0
  1 33  1  6
  2 34  1  0
  2 35  1  0
  3 36  1  1
  4 37  1  0
  4 38  1  0
  5 39  1  0
  5 40  1  0
  6 41  1  1
  7 42  1  0
 11 43  1  0
 15 44  1  0
 17 45  1  0
 17 46  1  0
 19 47  1  0
 19 48  1  0
 19 49  1  0
 20 50  1  0
 20 51  1  0
 20 52  1  0
 22 53  1  0
 22 54  1  0
 23 55  1  0
 23 56  1  0
 24 57  1  0
 24 58  1  0
 27 59  1  0
 28 60  1  0
 30 61  1  0
 31 62  1  0
M  CHG  1   3   1
M  END
>  <score>  (4) 
-8.73

$$$$
=
     RDKit          3D

 62 64  0  0  0  0  0  0  0  0999 V2000
    1.3260   64.0910   70.4550 C   0  0  1  0  0  0  0  0  0  0  0  0
    0.5820   63.3190   71.5590 C   0  0  0  0  0  0  0  0  0  0  0  0
    0.6560   64.1450   72.8310 N   0  0  1  0  0  4  0  0  0  0  0  0
   -0.1540   65.4210   72.7170 C   0  0  0  0  0  0  0  0  0  0  0  0
   -0.3460   65.8430   71.2640 C   0  0  0  0  0  0  0  0  0  0  0  0
    0.9140   65.5860   70.4350 C   0  0  2  0  0  0  0  0  0  0  0  0
    0.7530   66.0880   69.0760 N   0  0  0  0  0  0  0  0  0  0  0  0
    1.2370   67.3250   68.7060 C   0  0  0  0  0  0  0  0  0  0  0  0
    1.8560   68.0250   69.5040 O   0  0  0  0  0  0  0  0  0  0  0  0
    0.9750   67.8010   67.3080 C   0  0  0  0  0  0  0  0  0  0  0  0
    2.1090   68.1770   66.5690 C   0  0  0  0  0  0  0  0  0  0  0  0
    1.9840   68.6400   65.2610 C   0  0  0  0  0  0  0  0  0  0  0  0
    3.4140   69.1050   64.4100 Cl  0  0  0  0  0  0  0  0  0  0  0  0
    0.7280   68.7030   64.6390 C   0  0  0  0  0  0  0  0  0  0  0  0
   -0.4050   68.3730   65.3950 C   0  0  0  0  0  0  0  0  0  0  0  0
   -0.3020   67.9040   66.7170 C   0  0  0  0  0  0  0  0  0  0  0  0
    0.5570   69.2890   63.3740 N   0  0  0  0  0  0  0  0  0  0  0  0
   -1.3930   67.5570   67.4790 O   0  0  0  0  0  0  0  0  0  0  0  0
   -2.6800   67.9570   67.0110 C   0  0  0  0  0  0  0  0  0  0  0  0
    3.4980   63.3600   69.7590 C   0  0  0  0  0  0  0  0  0  0  0  0
    2.7240   63.9760   70.7900 O   0  0  0  0  0  0  0  0  0  0  0  0
    0.3440   63.3810   74.1000 C   0  0  0  0  0  0  0  0  0  0  0  0
   -0.0080   61.9350   73.7900 C   0  0  0  0  0  0  0  0  0  0  0  0
    0.9690   60.9730   74.4630 C   0  0  0  0  0  0  0  0  0  0  0  0
    1.2920   59.9700   73.5040 O   0  0  0  0  0  0  0  0  0  0  0  0
    2.4570   60.1230   72.8050 C   0  0  0  0  0  0  0  0  0  0  0  0
    3.4350   60.8790   73.4620 C   0  0  0  0  0  0  0  0  0  0  0  0
    4.6730   61.1160   72.8630 C   0  0  0  0  0  0  0  0  0  0  0  0
    4.9290   60.5940   71.6030 C   0  0  0  0  0  0  0  0  0  0  0  0
    3.9700   59.8400   70.9350 C   0  0  0  0  0  0  0  0  0  0  0  0
    2.7290   59.6030   71.5360 C   0  0  0  0  0  0  0  0  0  0  0  0
    6.1140   60.8170   71.0220 F   0  0  0  0  0  0  0  0  0  0  0  0
    1.0920   63.6846   69.4600 H   0  0  0  0  0  0  0  0  0  0  0  0
   -0.4688   63.1708   71.2693 H   0  0  0  0  0  0  0  0  0  0  0  0
    1.0407   62.3313   71.7141 H   0  0  0  0  0  0  0  0  0  0  0  0
    1.6482   64.4050   72.9248 H   0  0  0  0  0  0  0  0  0  0  0  0
   -1.1413   65.2578   73.1737 H   0  0  0  0  0  0  0  0  0  0  0  0
    0.3945   66.2212   73.2355 H   0  0  0  0  0  0  0  0  0  0  0  0
   -1.1806   65.2708   70.8328 H   0  0  0  0  0  0  0  0  0  0  0  0
   -0.5592   66.9219   71.2430 H   0  0  0  0  0  0  0  0  0  0  0  0
    1.7395   66.1438   70.9014 H   0  0  0  0  0  0  0  0  0  0  0  0
    0.2677   65.5068   68.3777 H   0  0  0  0  0  0  0  0  0  0  0  0
    3.1061   68.1051   67.0279 H   0  0  0  0  0  0  0  0  0  0  0  0
   -1.4014   68.4837   64.9424 H   0  0  0  0  0  0  0  0  0  0  0  0
   -0.3780   69.3202   62.9430 H   0  0  0  0  0  0  0  0  0  0  0  0
    1.3666   69.6875   62.8773 H   0  0  0  0  0  0  0  0  0  0  0  0
   -3.3356   68.1608   67.8704 H   0  0  0  0  0  0  0  0  0  0  0  0
   -2.5818   68.8670   66.4009 H   0  0  0  0  0  0  0  0  0  0  0  0
   -3.1149   67.1516   66.4009 H   0  0  0  0  0  0  0  0  0  0  0  0
    4.2822   62.7359   70.2124 H   0  0  0  0  0  0  0  0  0  0  0  0
    2.8446   62.7322   69.1354 H   0  0  0  0  0  0  0  0  0  0  0  0
    3.9632   64.1377   69.1354 H   0  0  0  0  0  0  0  0  0  0  0  0
    1.2239   63.4040   74.7598 H   0  0  0  0  0  0  0  0  0  0  0  0
   -0.5180   63.8547   74.5925 H   0  0  0  0  0  0  0  0  0  0  0  0
   -1.0249   61.7271   74.1544 H   0  0  0  0  0  0  0  0  0  0  0  0
    0.0514   61.7874   72.7016 H   0  0  0  0  0  0  0  0  0  0  0  0
    1.8787   61.5106   74.7686 H   0  0  0  0  0  0  0  0  0  0  0  0
    0.5228   60.5262   75.3637 H   0  0  0  0  0  0  0  0  0  0  0  0
    3.2256   61.2904   74.4605 H   0  0  0  0  0  0  0  0  0  0  0  0
    5.4379   61.7104   73.3842 H   0  0  0  0  0  0  0  0  0  0  0  0
    4.1866   59.4312   69.9370 H   0  0  0  0  0  0  0  0  0  0  0  0
    1.9677   59.0079   71.0104 H   0  0  0  0  0  0  0  0  0  0  0  0
  2  1  1  0
  3  2  1  0
  4  3  1  0
  5  4  1  0
  6  5  1  0
  6  1  1  0
  7  6  1  0
  8  7  1  0
  9  8  2  0
 10  8  1  0
 11 10  2  0
 12 11  1  0
 13 12  1  0
 14 12  2  0
 15 14  1  0
 16 15  2  0
 16 10  1  0
 17 14  1  0
 18 16  1  0
 19 18  1  0
 21 20  1  0
 21  1  1  0
 22  3  1  0
 23 22  1  0
 24 23  1  0
 25 24  1  0
 26 25  1  0
 27 26  2  0
 28 27  1  0
 29 28  2  0
 30 29  1  0
 31 30  2  0
 31 26  1  0
 32 29  1  0
  1 33  1  6
  2 34  1  0
  2 35  1  0
  3 36  1  1
  4 37  1  0
  4 38  1  0
  5 39  1  0
  5 40  1  0
  6 41  1  1
  7 42  1  0
 11 43  1  0
 15 44  1  0
 17 45  1  0
 17 46  1  0
 19 47  1  0
 19 48  1  0
 19 49  1  0
 20 50  1  0
 20 51  1  0
 20 52  1  0
 22 53  1  0
 22 54  1  0
 23 55  1  0
 23 56  1  0
 24 57  1  0
 24 58  1  0
 27 59  1  0
 28 60  1  0
 30 61  1  0
 31 62  1  0
M  CHG  1   3   1
M  END
>  <score>  (5) 
-8.723

$$$$
=
     RDKit          3D

 62 64  0  0  0  0  0  0  0  0999 V2000
    2.4910   63.9630   70.4050 C   0  0  1  0  0  0  0  0  0  0  0  0
    2.0820   65.4410   70.2730 C   0  0  0  0  0  0  0  0  0  0  0  0
    0.7140   65.4830   69.6140 N   0  0  1  0  0  4  0  0  0  0  0  0
   -0.3610   64.9230   70.5230 C   0  0  0  0  0  0  0  0  0  0  0  0
    0.2150   63.9670   71.5620 C   0  0  0  0  0  0  0  0  0  0  0  0
    1.3310   63.1040   70.9700 C   0  0  2  0  0  0  0  0  0  0  0  0
    1.8010   62.1250   71.9420 N   0  0  0  0  0  0  0  0  0  0  0  0
    2.2870   60.8960   71.5470 C   0  0  0  0  0  0  0  0  0  0  0  0
    2.3740   60.6060   70.3570 O   0  0  0  0  0  0  0  0  0  0  0  0
    2.6900   59.9160   72.6080 C   0  0  0  0  0  0  0  0  0  0  0  0
    1.8340   58.8170   72.7810 C   0  0  0  0  0  0  0  0  0  0  0  0
    2.1070   57.8460   73.7420 C   0  0  0  0  0  0  0  0  0  0  0  0
    1.0050   56.5270   73.9200 Cl  0  0  0  0  0  0  0  0  0  0  0  0
    3.2640   57.9240   74.5320 C   0  0  0  0  0  0  0  0  0  0  0  0
    4.0910   59.0470   74.3890 C   0  0  0  0  0  0  0  0  0  0  0  0
    3.8340   60.0390   73.4260 C   0  0  0  0  0  0  0  0  0  0  0  0
    3.4960   57.0360   75.5950 N   0  0  0  0  0  0  0  0  0  0  0  0
    4.6350   61.1430   73.2510 O   0  0  0  0  0  0  0  0  0  0  0  0
    5.5110   61.1500   72.1240 C   0  0  0  0  0  0  0  0  0  0  0  0
    4.1340   63.0250   68.9360 C   0  0  0  0  0  0  0  0  0  0  0  0
    2.8060   63.5350   69.0640 O   0  0  0  0  0  0  0  0  0  0  0  0
    0.3320   66.8300   69.0390 C   0  0  0  0  0  0  0  0  0  0  0  0
    1.5410   67.7470   68.9540 C   0  0  0  0  0  0  0  0  0  0  0  0
    1.4120   68.7250   67.7870 C   0  0  0  0  0  0  0  0  0  0  0  0
    2.7260   69.1830   67.4820 O   0  0  0  0  0  0  0  0  0  0  0  0
    3.1170   69.1390   66.1720 C   0  0  0  0  0  0  0  0  0  0  0  0
    4.4480   69.5090   65.9500 C   0  0  0  0  0  0  0  0  0  0  0  0
    4.9800   69.5100   64.6590 C   0  0  0  0  0  0  0  0  0  0  0  0
    4.1740   69.1390   63.5920 C   0  0  0  0  0  0  0  0  0  0  0  0
    2.8490   68.7680   63.7940 C   0  0  0  0  0  0  0  0  0  0  0  0
    2.3160   68.7680   65.0870 C   0  0  0  0  0  0  0  0  0  0  0  0
    4.6770   69.1380   62.3520 F   0  0  0  0  0  0  0  0  0  0  0  0
    3.3376   63.8467   71.0976 H   0  0  0  0  0  0  0  0  0  0  0  0
    2.0331   65.9068   71.2683 H   0  0  0  0  0  0  0  0  0  0  0  0
    2.8180   65.9927   69.6697 H   0  0  0  0  0  0  0  0  0  0  0  0
    0.7909   64.8649   68.7937 H   0  0  0  0  0  0  0  0  0  0  0  0
   -0.8571   65.7561   71.0425 H   0  0  0  0  0  0  0  0  0  0  0  0
   -1.0748   64.3620   69.9019 H   0  0  0  0  0  0  0  0  0  0  0  0
    0.6217   64.5522   72.4000 H   0  0  0  0  0  0  0  0  0  0  0  0
   -0.5915   63.3020   71.9047 H   0  0  0  0  0  0  0  0  0  0  0  0
    0.9088   62.5518   70.1175 H   0  0  0  0  0  0  0  0  0  0  0  0
    1.7696   62.3558   72.9453 H   0  0  0  0  0  0  0  0  0  0  0  0
    0.9376   58.7214   72.1507 H   0  0  0  0  0  0  0  0  0  0  0  0
    4.9649   59.1551   75.0482 H   0  0  0  0  0  0  0  0  0  0  0  0
    4.3552   57.1187   76.1569 H   0  0  0  0  0  0  0  0  0  0  0  0
    2.8069   56.3021   75.8127 H   0  0  0  0  0  0  0  0  0  0  0  0
    6.5548   61.1583   72.4710 H   0  0  0  0  0  0  0  0  0  0  0  0
    5.3338   60.2504   71.5163 H   0  0  0  0  0  0  0  0  0  0  0  0
    5.3194   62.0466   71.5163 H   0  0  0  0  0  0  0  0  0  0  0  0
    4.5617   62.8608   69.9361 H   0  0  0  0  0  0  0  0  0  0  0  0
    4.1095   62.0723   68.3867 H   0  0  0  0  0  0  0  0  0  0  0  0
    4.7535   63.7492   68.3867 H   0  0  0  0  0  0  0  0  0  0  0  0
   -0.0825   66.6863   68.0303 H   0  0  0  0  0  0  0  0  0  0  0  0
   -0.4152   67.2945   69.6993 H   0  0  0  0  0  0  0  0  0  0  0  0
    1.6262   68.3162   69.8914 H   0  0  0  0  0  0  0  0  0  0  0  0
    2.4364   67.1287   68.7929 H   0  0  0  0  0  0  0  0  0  0  0  0
    0.9768   68.2166   66.9140 H   0  0  0  0  0  0  0  0  0  0  0  0
    0.7536   69.5661   68.0499 H   0  0  0  0  0  0  0  0  0  0  0  0
    5.0812   69.8018   66.8005 H   0  0  0  0  0  0  0  0  0  0  0  0
    6.0270   69.8018   64.4895 H   0  0  0  0  0  0  0  0  0  0  0  0
    2.2218   68.4753   62.9390 H   0  0  0  0  0  0  0  0  0  0  0  0
    1.2680   68.4766   65.2505 H   0  0  0  0  0  0  0  0  0  0  0  0
  2  1  1  0
  3  2  1  0
  4  3  1  0
  5  4  1  0
  6  5  1  0
  6  1  1  0
  7  6  1  0
  8  7  1  0
  9  8  2  0
 10  8  1  0
 11 10  2  0
 12 11  1  0
 13 12  1  0
 14 12  2  0
 15 14  1  0
 16 15  2  0
 16 10  1  0
 17 14  1  0
 18 16  1  0
 19 18  1  0
 21 20  1  0
 21  1  1  0
 22  3  1  0
 23 22  1  0
 24 23  1  0
 25 24  1  0
 26 25  1  0
 27 26  2  0
 28 27  1  0
 29 28  2  0
 30 29  1  0
 31 30  2  0
 31 26  1  0
 32 29  1  0
  1 33  1  1
  2 34  1  0
  2 35  1  0
  3 36  1  6
  4 37  1  0
  4 38  1  0
  5 39  1  0
  5 40  1  0
  6 41  1  6
  7 42  1  0
 11 43  1  0
 15 44  1  0
 17 45  1  0
 17 46  1  0
 19 47  1  0
 19 48  1  0
 19 49  1  0
 20 50  1  0
 20 51  1  0
 20 52  1  0
 22 53  1  0
 22 54  1  0
 23 55  1  0
 23 56  1  0
 24 57  1  0
 24 58  1  0
 27 59  1  0
 28 60  1  0
 30 61  1  0
 31 62  1  0
M  CHG  1   3   1
M  END
>  <score>  (6) 
-8.622

$$$$
=
     RDKit          3D

 62 64  0  0  0  0  0  0  0  0999 V2000
    1.7150   67.6710   68.2630 C   0  0  1  0  0  0  0  0  0  0  0  0
    1.4010   66.5000   69.2110 C   0  0  0  0  0  0  0  0  0  0  0  0
    0.0200   66.7370   69.7970 N   0  0  1  0  0  4  0  0  0  0  0  0
   -1.0630   66.6100   68.7450 C   0  0  0  0  0  0  0  0  0  0  0  0
   -0.5210   66.8530   67.3410 C   0  0  0  0  0  0  0  0  0  0  0  0
    0.5170   67.9770   67.3270 C   0  0  2  0  0  0  0  0  0  0  0  0
    0.9490   68.2690   65.9670 N   0  0  0  0  0  0  0  0  0  0  0  0
    1.7670   67.4020   65.2710 C   0  0  0  0  0  0  0  0  0  0  0  0
    2.1230   66.3360   65.7670 O   0  0  0  0  0  0  0  0  0  0  0  0
    2.2240   67.8020   63.9000 C   0  0  0  0  0  0  0  0  0  0  0  0
    1.3130   68.5670   63.1530 C   0  0  0  0  0  0  0  0  0  0  0  0
    1.6290   68.9900   61.8640 C   0  0  0  0  0  0  0  0  0  0  0  0
    0.4590   69.9120   60.9880 Cl  0  0  0  0  0  0  0  0  0  0  0  0
    2.8790   68.6970   61.2980 C   0  0  0  0  0  0  0  0  0  0  0  0
    3.7660   67.8940   62.0280 C   0  0  0  0  0  0  0  0  0  0  0  0
    3.4670   67.4550   63.3310 C   0  0  0  0  0  0  0  0  0  0  0  0
    3.1730   68.9950   59.9580 N   0  0  0  0  0  0  0  0  0  0  0  0
    4.3230   66.6810   64.0780 O   0  0  0  0  0  0  0  0  0  0  0  0
    4.5480   65.3400   63.6460 C   0  0  0  0  0  0  0  0  0  0  0  0
    2.6460   69.8680   68.4680 C   0  0  0  0  0  0  0  0  0  0  0  0
    1.9610   68.8000   69.1250 O   0  0  0  0  0  0  0  0  0  0  0  0
   -0.2880   65.9260   71.0370 C   0  0  0  0  0  0  0  0  0  0  0  0
    0.8040   64.9020   71.3010 C   0  0  0  0  0  0  0  0  0  0  0  0
    0.3950   63.5170   70.8020 C   0  0  0  0  0  0  0  0  0  0  0  0
    0.8470   62.5760   71.7710 O   0  0  0  0  0  0  0  0  0  0  0  0
    2.1430   62.1490   71.6740 C   0  0  0  0  0  0  0  0  0  0  0  0
    2.5800   61.9130   70.3650 C   0  0  0  0  0  0  0  0  0  0  0  0
    3.8810   61.4720   70.1190 C   0  0  0  0  0  0  0  0  0  0  0  0
    4.7430   61.2670   71.1880 C   0  0  0  0  0  0  0  0  0  0  0  0
    4.3260   61.4970   72.4950 C   0  0  0  0  0  0  0  0  0  0  0  0
    3.0210   61.9380   72.7410 C   0  0  0  0  0  0  0  0  0  0  0  0
    5.9910   60.8440   70.9600 F   0  0  0  0  0  0  0  0  0  0  0  0
    2.5719   67.4375   67.6140 H   0  0  0  0  0  0  0  0  0  0  0  0
    1.4133   65.5524   68.6526 H   0  0  0  0  0  0  0  0  0  0  0  0
    2.1536   66.4399   70.0110 H   0  0  0  0  0  0  0  0  0  0  0  0
    0.0314   67.7133   70.1252 H   0  0  0  0  0  0  0  0  0  0  0  0
   -1.4877   65.5964   68.7920 H   0  0  0  0  0  0  0  0  0  0  0  0
   -1.8304   67.3707   68.9513 H   0  0  0  0  0  0  0  0  0  0  0  0
   -0.0515   65.9283   66.9742 H   0  0  0  0  0  0  0  0  0  0  0  0
   -1.3597   67.1498   66.6940 H   0  0  0  0  0  0  0  0  0  0  0  0
    0.0337   68.8818   67.7241 H   0  0  0  0  0  0  0  0  0  0  0  0
    0.6376   69.1407   65.5152 H   0  0  0  0  0  0  0  0  0  0  0  0
    0.3399   68.8348   63.5905 H   0  0  0  0  0  0  0  0  0  0  0  0
    4.7216   67.5990   61.5700 H   0  0  0  0  0  0  0  0  0  0  0  0
    4.1002   68.7676   59.5713 H   0  0  0  0  0  0  0  0  0  0  0  0
    2.4615   69.4410   59.3615 H   0  0  0  0  0  0  0  0  0  0  0  0
    4.6578   64.6857   64.5234 H   0  0  0  0  0  0  0  0  0  0  0  0
    3.6941   65.0016   63.0408 H   0  0  0  0  0  0  0  0  0  0  0  0
    5.4656   65.2988   63.0408 H   0  0  0  0  0  0  0  0  0  0  0  0
    3.0792   70.5435   69.2203 H   0  0  0  0  0  0  0  0  0  0  0  0
    3.4491   69.4565   67.8389 H   0  0  0  0  0  0  0  0  0  0  0  0
    1.9371   70.4263   67.8389 H   0  0  0  0  0  0  0  0  0  0  0  0
   -0.3631   66.6031   71.9006 H   0  0  0  0  0  0  0  0  0  0  0  0
   -1.2383   65.3941   70.8818 H   0  0  0  0  0  0  0  0  0  0  0  0
    1.7218   65.2141   70.7812 H   0  0  0  0  0  0  0  0  0  0  0  0
    0.9732   64.8452   72.3864 H   0  0  0  0  0  0  0  0  0  0  0  0
   -0.6988   63.4595   70.7009 H   0  0  0  0  0  0  0  0  0  0  0  0
    0.8361   63.3084   69.8161 H   0  0  0  0  0  0  0  0  0  0  0  0
    1.8916   62.0767   69.5228 H   0  0  0  0  0  0  0  0  0  0  0  0
    4.2201   61.2887   69.0887 H   0  0  0  0  0  0  0  0  0  0  0  0
    5.0200   61.3327   73.3325 H   0  0  0  0  0  0  0  0  0  0  0  0
    2.6863   62.1185   73.7732 H   0  0  0  0  0  0  0  0  0  0  0  0
  2  1  1  0
  3  2  1  0
  4  3  1  0
  5  4  1  0
  6  5  1  0
  6  1  1  0
  7  6  1  0
  8  7  1  0
  9  8  2  0
 10  8  1  0
 11 10  2  0
 12 11  1  0
 13 12  1  0
 14 12  2  0
 15 14  1  0
 16 15  2  0
 16 10  1  0
 17 14  1  0
 18 16  1  0
 19 18  1  0
 21 20  1  0
 21  1  1  0
 22  3  1  0
 23 22  1  0
 24 23  1  0
 25 24  1  0
 26 25  1  0
 27 26  2  0
 28 27  1  0
 29 28  2  0
 30 29  1  0
 31 30  2  0
 31 26  1  0
 32 29  1  0
  1 33  1  6
  2 34  1  0
  2 35  1  0
  3 36  1  1
  4 37  1  0
  4 38  1  0
  5 39  1  0
  5 40  1  0
  6 41  1  1
  7 42  1  0
 11 43  1  0
 15 44  1  0
 17 45  1  0
 17 46  1  0
 19 47  1  0
 19 48  1  0
 19 49  1  0
 20 50  1  0
 20 51  1  0
 20 52  1  0
 22 53  1  0
 22 54  1  0
 23 55  1  0
 23 56  1  0
 24 57  1  0
 24 58  1  0
 27 59  1  0
 28 60  1  0
 30 61  1  0
 31 62  1  0
M  CHG  1   3   1
M  END
>  <score>  (7) 
-8.509

$$$$
=
     RDKit          3D

 62 64  0  0  0  0  0  0  0  0999 V2000
   -0.1270   62.9620   71.9720 C   0  0  1  0  0  0  0  0  0  0  0  0
    0.1350   63.8690   70.7560 C   0  0  0  0  0  0  0  0  0  0  0  0
    1.5780   64.3350   70.8310 N   0  0  1  0  0  4  0  0  0  0  0  0
    2.5480   63.1930   70.6050 C   0  0  0  0  0  0  0  0  0  0  0  0
    1.9190   61.8430   70.9330 C   0  0  0  0  0  0  0  0  0  0  0  0
    1.0140   61.9290   72.1630 C   0  0  2  0  0  0  0  0  0  0  0  0
    0.5030   60.6140   72.5260 N   0  0  0  0  0  0  0  0  0  0  0  0
    1.2020   59.7800   73.3740 C   0  0  0  0  0  0  0  0  0  0  0  0
    2.2610   60.1400   73.8800 O   0  0  0  0  0  0  0  0  0  0  0  0
    0.6440   58.4150   73.6480 C   0  0  0  0  0  0  0  0  0  0  0  0
    1.5460   57.3480   73.5040 C   0  0  0  0  0  0  0  0  0  0  0  0
    1.1350   56.0350   73.7280 C   0  0  0  0  0  0  0  0  0  0  0  0
    2.2860   54.7630   73.5170 Cl  0  0  0  0  0  0  0  0  0  0  0  0
   -0.1760   55.7540   74.1410 C   0  0  0  0  0  0  0  0  0  0  0  0
   -1.0850   56.8170   74.2380 C   0  0  0  0  0  0  0  0  0  0  0  0
   -0.6920   58.1490   74.0150 C   0  0  0  0  0  0  0  0  0  0  0  0
   -0.6530   54.4370   74.2450 N   0  0  0  0  0  0  0  0  0  0  0  0
   -1.5550   59.2150   74.1180 O   0  0  0  0  0  0  0  0  0  0  0  0
   -2.4810   59.2120   75.2030 C   0  0  0  0  0  0  0  0  0  0  0  0
    0.4570   63.3130   74.2690 C   0  0  0  0  0  0  0  0  0  0  0  0
   -0.1730   63.8530   73.1060 O   0  0  0  0  0  0  0  0  0  0  0  0
    1.8990   65.5360   69.9680 C   0  0  0  0  0  0  0  0  0  0  0  0
    0.6940   66.4560   69.8460 C   0  0  0  0  0  0  0  0  0  0  0  0
    0.9200   67.5240   68.7780 C   0  0  0  0  0  0  0  0  0  0  0  0
    1.0940   66.8430   67.5390 O   0  0  0  0  0  0  0  0  0  0  0  0
    1.8620   67.4570   66.5880 C   0  0  0  0  0  0  0  0  0  0  0  0
    2.4540   68.6550   67.0040 C   0  0  0  0  0  0  0  0  0  0  0  0
    3.2630   69.3880   66.1340 C   0  0  0  0  0  0  0  0  0  0  0  0
    3.4760   68.9170   64.8460 C   0  0  0  0  0  0  0  0  0  0  0  0
    2.8960   67.7290   64.4160 C   0  0  0  0  0  0  0  0  0  0  0  0
    2.0850   66.9950   65.2880 C   0  0  0  0  0  0  0  0  0  0  0  0
    4.2500   69.6140   64.0060 F   0  0  0  0  0  0  0  0  0  0  0  0
   -1.0563   62.3872   71.8453 H   0  0  0  0  0  0  0  0  0  0  0  0
   -0.0289   63.3053   69.8258 H   0  0  0  0  0  0  0  0  0  0  0  0
   -0.5492   64.7303   70.7629 H   0  0  0  0  0  0  0  0  0  0  0  0
    1.7014   64.6705   71.7970 H   0  0  0  0  0  0  0  0  0  0  0  0
    2.8596   63.1938   69.5500 H   0  0  0  0  0  0  0  0  0  0  0  0
    3.4105   63.3396   71.2718 H   0  0  0  0  0  0  0  0  0  0  0  0
    1.3211   61.5089   70.0722 H   0  0  0  0  0  0  0  0  0  0  0  0
    2.7277   61.1295   71.1494 H   0  0  0  0  0  0  0  0  0  0  0  0
    1.6261   62.2914   73.0020 H   0  0  0  0  0  0  0  0  0  0  0  0
   -0.3995   60.3002   72.1413 H   0  0  0  0  0  0  0  0  0  0  0  0
    2.5869   57.5505   73.2116 H   0  0  0  0  0  0  0  0  0  0  0  0
   -2.1330   56.6037   74.4952 H   0  0  0  0  0  0  0  0  0  0  0  0
   -1.6208   54.2625   74.5511 H   0  0  0  0  0  0  0  0  0  0  0  0
   -0.0350   53.6458   74.0151 H   0  0  0  0  0  0  0  0  0  0  0  0
   -1.9302   59.2138   76.1552 H   0  0  0  0  0  0  0  0  0  0  0  0
   -3.1164   60.1081   75.1453 H   0  0  0  0  0  0  0  0  0  0  0  0
   -3.1105   58.3118   75.1453 H   0  0  0  0  0  0  0  0  0  0  0  0
   -0.0223   63.7238   75.1698 H   0  0  0  0  0  0  0  0  0  0  0  0
    0.3547   62.2178   74.2663 H   0  0  0  0  0  0  0  0  0  0  0  0
    1.5237   63.5816   74.2663 H   0  0  0  0  0  0  0  0  0  0  0  0
    2.7323   66.0927   70.4215 H   0  0  0  0  0  0  0  0  0  0  0  0
    2.1738   65.1826   68.9632 H   0  0  0  0  0  0  0  0  0  0  0  0
   -0.1881   65.8577   69.5740 H   0  0  0  0  0  0  0  0  0  0  0  0
    0.5396   66.9576   70.8127 H   0  0  0  0  0  0  0  0  0  0  0  0
    0.0486   68.1930   68.7223 H   0  0  0  0  0  0  0  0  0  0  0  0
    1.8015   68.1374   69.0162 H   0  0  0  0  0  0  0  0  0  0  0  0
    2.2802   69.0224   68.0261 H   0  0  0  0  0  0  0  0  0  0  0  0
    3.7267   70.3287   66.4657 H   0  0  0  0  0  0  0  0  0  0  0  0
    3.0743   67.3671   63.3927 H   0  0  0  0  0  0  0  0  0  0  0  0
    1.6233   66.0552   64.9509 H   0  0  0  0  0  0  0  0  0  0  0  0
  2  1  1  0
  3  2  1  0
  4  3  1  0
  5  4  1  0
  6  5  1  0
  6  1  1  0
  7  6  1  0
  8  7  1  0
  9  8  2  0
 10  8  1  0
 11 10  2  0
 12 11  1  0
 13 12  1  0
 14 12  2  0
 15 14  1  0
 16 15  2  0
 16 10  1  0
 17 14  1  0
 18 16  1  0
 19 18  1  0
 21 20  1  0
 21  1  1  0
 22  3  1  0
 23 22  1  0
 24 23  1  0
 25 24  1  0
 26 25  1  0
 27 26  2  0
 28 27  1  0
 29 28  2  0
 30 29  1  0
 31 30  2  0
 31 26  1  0
 32 29  1  0
  1 33  1  6
  2 34  1  0
  2 35  1  0
  3 36  1  1
  4 37  1  0
  4 38  1  0
  5 39  1  0
  5 40  1  0
  6 41  1  1
  7 42  1  0
 11 43  1  0
 15 44  1  0
 17 45  1  0
 17 46  1  0
 19 47  1  0
 19 48  1  0
 19 49  1  0
 20 50  1  0
 20 51  1  0
 20 52  1  0
 22 53  1  0
 22 54  1  0
 23 55  1  0
 23 56  1  0
 24 57  1  0
 24 58  1  0
 27 59  1  0
 28 60  1  0
 30 61  1  0
 31 62  1  0
M  CHG  1   3   1
M  END
>  <score>  (8) 
-8.454

$$$$
=
     RDKit          3D

 62 64  0  0  0  0  0  0  0  0999 V2000
    3.2000   61.5300   72.0660 C   0  0  1  0  0  0  0  0  0  0  0  0
    3.0100   63.0530   71.9380 C   0  0  0  0  0  0  0  0  0  0  0  0
    1.9990   63.3010   70.8320 N   0  0  1  0  0  4  0  0  0  0  0  0
    0.6140   62.8260   71.2240 C   0  0  0  0  0  0  0  0  0  0  0  0
    0.6680   61.7490   72.3020 C   0  0  0  0  0  0  0  0  0  0  0  0
    1.8380   60.7900   72.0790 C   0  0  2  0  0  0  0  0  0  0  0  0
    1.8160   59.7070   73.0540 N   0  0  0  0  0  0  0  0  0  0  0  0
    2.2660   58.4430   72.7340 C   0  0  0  0  0  0  0  0  0  0  0  0
    2.7360   58.2030   71.6250 O   0  0  0  0  0  0  0  0  0  0  0  0
    2.1500   57.3650   73.7700 C   0  0  0  0  0  0  0  0  0  0  0  0
    1.3090   56.2890   73.4390 C   0  0  0  0  0  0  0  0  0  0  0  0
    1.1220   55.2330   74.3280 C   0  0  0  0  0  0  0  0  0  0  0  0
    0.0590   53.9490   73.8730 Cl  0  0  0  0  0  0  0  0  0  0  0  0
    1.8000   55.2000   75.5560 C   0  0  0  0  0  0  0  0  0  0  0  0
    2.6010   56.2970   75.9020 C   0  0  0  0  0  0  0  0  0  0  0  0
    2.8030   57.3740   75.0210 C   0  0  0  0  0  0  0  0  0  0  0  0
    1.5300   54.2200   76.5250 N   0  0  0  0  0  0  0  0  0  0  0  0
    3.5960   58.4560   75.3240 O   0  0  0  0  0  0  0  0  0  0  0  0
    3.1140   59.3720   76.3070 C   0  0  0  0  0  0  0  0  0  0  0  0
    5.3650   61.2750   71.0740 C   0  0  0  0  0  0  0  0  0  0  0  0
    3.9540   61.1450   70.8980 O   0  0  0  0  0  0  0  0  0  0  0  0
    1.9880   64.7140   70.2920 C   0  0  0  0  0  0  0  0  0  0  0  0
    0.5670   65.2450   70.1900 C   0  0  0  0  0  0  0  0  0  0  0  0
    0.5540   66.7120   69.7620 C   0  0  0  0  0  0  0  0  0  0  0  0
    0.3180   66.7320   68.3580 O   0  0  0  0  0  0  0  0  0  0  0  0
    1.1870   67.4540   67.5860 C   0  0  0  0  0  0  0  0  0  0  0  0
    1.7220   68.5840   68.2160 C   0  0  0  0  0  0  0  0  0  0  0  0
    2.6220   69.4130   67.5440 C   0  0  0  0  0  0  0  0  0  0  0  0
    2.9840   69.1070   66.2400 C   0  0  0  0  0  0  0  0  0  0  0  0
    2.4640   67.9880   65.5990 C   0  0  0  0  0  0  0  0  0  0  0  0
    1.5610   67.1580   66.2720 C   0  0  0  0  0  0  0  0  0  0  0  0
    3.8460   69.8970   65.5890 F   0  0  0  0  0  0  0  0  0  0  0  0
    3.7093   61.2701   73.0057 H   0  0  0  0  0  0  0  0  0  0  0  0
    2.6358   63.4649   72.8869 H   0  0  0  0  0  0  0  0  0  0  0  0
    3.9667   63.5421   71.7022 H   0  0  0  0  0  0  0  0  0  0  0  0
    2.3201   62.7259   70.0401 H   0  0  0  0  0  0  0  0  0  0  0  0
    0.0386   63.6825   71.6051 H   0  0  0  0  0  0  0  0  0  0  0  0
    0.1362   62.3934   70.3326 H   0  0  0  0  0  0  0  0  0  0  0  0
    0.7837   62.2316   73.2837 H   0  0  0  0  0  0  0  0  0  0  0  0
   -0.2660   61.1696   72.2577 H   0  0  0  0  0  0  0  0  0  0  0  0
    1.7162   60.3429   71.0814 H   0  0  0  0  0  0  0  0  0  0  0  0
    1.4569   59.8893   74.0020 H   0  0  0  0  0  0  0  0  0  0  0  0
    0.7929   56.2805   72.4676 H   0  0  0  0  0  0  0  0  0  0  0  0
    3.0848   56.3158   76.8897 H   0  0  0  0  0  0  0  0  0  0  0  0
    2.0447   54.2223   77.4171 H   0  0  0  0  0  0  0  0  0  0  0  0
    0.8172   53.4989   76.3435 H   0  0  0  0  0  0  0  0  0  0  0  0
    3.3228   58.9753   77.3115 H   0  0  0  0  0  0  0  0  0  0  0  0
    3.6187   60.3415   76.1835 H   0  0  0  0  0  0  0  0  0  0  0  0
    2.0291   59.5051   76.1835 H   0  0  0  0  0  0  0  0  0  0  0  0
    5.6000   61.2967   72.1484 H   0  0  0  0  0  0  0  0  0  0  0  0
    5.8734   60.4199   70.6046 H   0  0  0  0  0  0  0  0  0  0  0  0
    5.7086   62.2086   70.6046 H   0  0  0  0  0  0  0  0  0  0  0  0
    2.5670   65.3618   70.9666 H   0  0  0  0  0  0  0  0  0  0  0  0
    2.4344   64.7094   69.2867 H   0  0  0  0  0  0  0  0  0  0  0  0
    0.0141   64.6500   69.4482 H   0  0  0  0  0  0  0  0  0  0  0  0
    0.0944   65.1671   71.1802 H   0  0  0  0  0  0  0  0  0  0  0  0
   -0.2471   67.2522   70.2878 H   0  0  0  0  0  0  0  0  0  0  0  0
    1.5078   67.2019   70.0076 H   0  0  0  0  0  0  0  0  0  0  0  0
    1.4305   68.8208   69.2499 H   0  0  0  0  0  0  0  0  0  0  0  0
    3.0399   70.2997   68.0432 H   0  0  0  0  0  0  0  0  0  0  0  0
    2.7618   67.7561   64.5658 H   0  0  0  0  0  0  0  0  0  0  0  0
    1.1456   66.2731   65.7675 H   0  0  0  0  0  0  0  0  0  0  0  0
  2  1  1  0
  3  2  1  0
  4  3  1  0
  5  4  1  0
  6  5  1  0
  6  1  1  0
  7  6  1  0
  8  7  1  0
  9  8  2  0
 10  8  1  0
 11 10  2  0
 12 11  1  0
 13 12  1  0
 14 12  2  0
 15 14  1  0
 16 15  2  0
 16 10  1  0
 17 14  1  0
 18 16  1  0
 19 18  1  0
 21 20  1  0
 21  1  1  0
 22  3  1  0
 23 22  1  0
 24 23  1  0
 25 24  1  0
 26 25  1  0
 27 26  2  0
 28 27  1  0
 29 28  2  0
 30 29  1  0
 31 30  2  0
 31 26  1  0
 32 29  1  0
  1 33  1  1
  2 34  1  0
  2 35  1  0
  3 36  1  6
  4 37  1  0
  4 38  1  0
  5 39  1  0
  5 40  1  0
  6 41  1  6
  7 42  1  0
 11 43  1  0
 15 44  1  0
 17 45  1  0
 17 46  1  0
 19 47  1  0
 19 48  1  0
 19 49  1  0
 20 50  1  0
 20 51  1  0
 20 52  1  0
 22 53  1  0
 22 54  1  0
 23 55  1  0
 23 56  1  0
 24 57  1  0
 24 58  1  0
 27 59  1  0
 28 60  1  0
 30 61  1  0
 31 62  1  0
M  CHG  1   3   1
M  END
>  <score>  (9) 
-8.392

$$$$
