=
     RDKit          3D

 62 66  0  0  0  0  0  0  0  0999 V2000
    1.1530   66.4210   69.5830 C   0  0  0  0  0  0  0  0  0  0  0  0
    1.9810   61.6070   72.0020 C   0  0  0  0  0  0  0  0  0  0  0  0
    2.6210   62.0680   70.8320 C   0  0  0  0  0  0  0  0  0  0  0  0
    2.3660   63.3270   70.2540 C   0  0  0  0  0  0  0  0  0  0  0  0
    1.4270   64.1580   70.8750 C   0  0  0  0  0  0  0  0  0  0  0  0
    0.7980   63.7010   72.0150 C   0  0  0  0  0  0  0  0  0  0  0  0
    1.0330   62.4570   72.6010 C   0  0  0  0  0  0  0  0  0  0  0  0
   -0.0740   64.6450   72.4580 O   0  0  0  0  0  0  0  0  0  0  0  0
   -0.0360   65.7450   71.6150 N   0  0  0  0  0  0  0  0  0  0  0  0
    0.8680   65.4440   70.6700 C   0  0  0  0  0  0  0  0  0  0  0  0
    2.8570   57.8070   73.8840 O   0  0  0  0  0  0  0  0  0  0  0  0
    1.7880   57.9730   72.9440 C   0  0  0  0  0  0  0  0  0  0  0  0
    1.2090   59.3980   72.8960 C   0  0  0  0  0  0  0  0  0  0  0  0
    2.2650   60.3570   72.5290 N   0  0  0  0  0  0  0  0  0  0  0  0
    3.6310   59.9840   72.9490 C   0  0  0  0  0  0  0  0  0  0  0  0
    3.5790   59.0180   74.1450 C   0  0  0  0  0  0  0  0  0  0  0  0
   -0.0870   66.8180   68.7670 C   0  0  0  0  0  0  0  0  0  0  0  0
    0.1150   67.9250   67.7060 C   0  0  0  0  0  0  0  0  0  0  0  0
   -1.0180   67.8650   66.6650 C   0  0  0  0  0  0  0  0  0  0  0  0
   -0.6590   68.6810   65.4350 C   0  0  0  0  0  0  0  0  0  0  0  0
    0.5320   68.0660   64.7330 N   0  0  0  0  0  4  0  0  0  0  0  0
    1.4660   67.2910   65.6390 C   0  0  0  0  0  0  0  0  0  0  0  0
    1.5000   67.9050   67.0290 C   0  0  0  0  0  0  0  0  0  0  0  0
    1.2380   69.0850   63.8590 C   0  0  0  0  0  0  0  0  0  0  0  0
    2.6620   68.7060   63.5500 C   0  0  0  0  0  0  0  0  0  0  0  0
    3.7040   69.0980   64.4060 C   0  0  0  0  0  0  0  0  0  0  0  0
    5.0270   68.7650   64.1070 C   0  0  0  0  0  0  0  0  0  0  0  0
    5.3200   68.0390   62.9570 C   0  0  0  0  0  0  0  0  0  0  0  0
    4.2950   67.6380   62.1030 C   0  0  0  0  0  0  0  0  0  0  0  0
    2.9710   67.9680   62.3980 C   0  0  0  0  0  0  0  0  0  0  0  0
    1.5763   67.3299   70.0355 H   0  0  0  0  0  0  0  0  0  0  0  0
    1.8519   65.9329   68.8878 H   0  0  0  0  0  0  0  0  0  0  0  0
    3.3569   61.4104   70.3463 H   0  0  0  0  0  0  0  0  0  0  0  0
    2.8897   63.6475   69.3413 H   0  0  0  0  0  0  0  0  0  0  0  0
    0.4915   62.1487   73.5075 H   0  0  0  0  0  0  0  0  0  0  0  0
    2.1662   57.7199   71.9426 H   0  0  0  0  0  0  0  0  0  0  0  0
    0.9729   57.3103   73.2704 H   0  0  0  0  0  0  0  0  0  0  0  0
    0.4033   59.4391   72.1483 H   0  0  0  0  0  0  0  0  0  0  0  0
    0.8107   59.6603   73.8873 H   0  0  0  0  0  0  0  0  0  0  0  0
    4.1473   59.4947   72.1100 H   0  0  0  0  0  0  0  0  0  0  0  0
    4.1733   60.8932   73.2478 H   0  0  0  0  0  0  0  0  0  0  0  0
    3.0950   59.5350   74.9867 H   0  0  0  0  0  0  0  0  0  0  0  0
    4.6169   58.7289   74.3667 H   0  0  0  0  0  0  0  0  0  0  0  0
   -0.4483   65.9182   68.2476 H   0  0  0  0  0  0  0  0  0  0  0  0
   -0.7955   67.2374   69.4965 H   0  0  0  0  0  0  0  0  0  0  0  0
    0.0751   68.8845   68.2424 H   0  0  0  0  0  0  0  0  0  0  0  0
   -1.1817   66.8183   66.3691 H   0  0  0  0  0  0  0  0  0  0  0  0
   -1.9324   68.2820   67.1122 H   0  0  0  0  0  0  0  0  0  0  0  0
   -1.5173   68.6993   64.7472 H   0  0  0  0  0  0  0  0  0  0  0  0
   -0.4053   69.7058   65.7440 H   0  0  0  0  0  0  0  0  0  0  0  0
    0.1534   67.3389   64.1094 H   0  0  0  0  0  0  0  0  0  0  0  0
    1.1166   66.2506   65.7125 H   0  0  0  0  0  0  0  0  0  0  0  0
    2.4797   67.3246   65.2132 H   0  0  0  0  0  0  0  0  0  0  0  0
    2.1892   67.3195   67.6553 H   0  0  0  0  0  0  0  0  0  0  0  0
    1.8324   68.9482   66.9228 H   0  0  0  0  0  0  0  0  0  0  0  0
    0.6861   69.1775   62.9120 H   0  0  0  0  0  0  0  0  0  0  0  0
    1.2622   70.0348   64.4133 H   0  0  0  0  0  0  0  0  0  0  0  0
    3.4769   69.6707   65.3173 H   0  0  0  0  0  0  0  0  0  0  0  0
    5.8381   69.0770   64.7814 H   0  0  0  0  0  0  0  0  0  0  0  0
    6.3631   67.7811   62.7216 H   0  0  0  0  0  0  0  0  0  0  0  0
    4.5290   67.0612   61.1960 H   0  0  0  0  0  0  0  0  0  0  0  0
    2.1645   67.6470   61.7223 H   0  0  0  0  0  0  0  0  0  0  0  0
  3  2  2  0
  4  3  1  0
  5  4  2  0
  6  5  1  0
  7  6  2  0
  7  2  1  0
  8  6  1  0
  9  8  1  0
 10  5  1  0
 10  1  1  0
 10  9  2  0
 12 11  1  0
 13 12  1  0
 14 13  1  0
 14  2  1  0
 15 14  1  0
 16 11  1  0
 16 15  1  0
 17  1  1  0
 18 17  1  0
 19 18  1  0
 20 19  1  0
 21 20  1  0
 22 21  1  0
 23 22  1  0
 23 18  1  0
 24 21  1  0
 25 24  1  0
 26 25  2  0
 27 26  1  0
 28 27  2  0
 29 28  1  0
 30 29  2  0
 30 25  1  0
  1 31  1  0
  1 32  1  0
  3 33  1  0
  4 34  1  0
  7 35  1  0
 12 36  1  0
 12 37  1  0
 13 38  1  0
 13 39  1  0
 15 40  1  0
 15 41  1  0
 16 42  1  0
 16 43  1  0
 17 44  1  0
 17 45  1  0
 18 46  1  0
 19 47  1  0
 19 48  1  0
 20 49  1  0
 20 50  1  0
 21 51  1  0
 22 52  1  0
 22 53  1  0
 23 54  1  0
 23 55  1  0
 24 56  1  0
 24 57  1  0
 26 58  1  0
 27 59  1  0
 28 60  1  0
 29 61  1  0
 30 62  1  0
M  CHG  1  21   1
M  END
>  <score>  (1) 
-10.308

$$$$
=
     RDKit          3D

 62 66  0  0  0  0  0  0  0  0999 V2000
    1.1080   66.1250   70.2880 C   0  0  0  0  0  0  0  0  0  0  0  0
    0.7890   61.1430   72.4760 C   0  0  0  0  0  0  0  0  0  0  0  0
   -0.0160   62.2510   72.8160 C   0  0  0  0  0  0  0  0  0  0  0  0
    0.1120   63.5170   72.2120 C   0  0  0  0  0  0  0  0  0  0  0  0
    1.0920   63.6790   71.2260 C   0  0  0  0  0  0  0  0  0  0  0  0
    1.8820   62.5950   70.9010 C   0  0  0  0  0  0  0  0  0  0  0  0
    1.7740   61.3350   71.4900 C   0  0  0  0  0  0  0  0  0  0  0  0
    2.7670   62.9560   69.9340 O   0  0  0  0  0  0  0  0  0  0  0  0
    2.5770   64.2890   69.6040 N   0  0  0  0  0  0  0  0  0  0  0  0
    1.5700   64.7130   70.3820 C   0  0  0  0  0  0  0  0  0  0  0  0
    0.4240   57.4050   74.6300 O   0  0  0  0  0  0  0  0  0  0  0  0
   -0.7150   58.1440   74.1700 C   0  0  0  0  0  0  0  0  0  0  0  0
   -0.4740   59.6590   74.0500 C   0  0  0  0  0  0  0  0  0  0  0  0
    0.6250   59.9190   73.1040 N   0  0  0  0  0  0  0  0  0  0  0  0
    1.6550   58.8630   73.0260 C   0  0  0  0  0  0  0  0  0  0  0  0
    1.6730   58.0360   74.3240 C   0  0  0  0  0  0  0  0  0  0  0  0
   -0.1050   66.3190   69.3640 C   0  0  0  0  0  0  0  0  0  0  0  0
    0.0030   67.4530   68.3190 C   0  0  0  0  0  0  0  0  0  0  0  0
   -0.9740   67.1900   67.1570 C   0  0  0  0  0  0  0  0  0  0  0  0
   -0.6400   68.0700   65.9650 C   0  0  0  0  0  0  0  0  0  0  0  0
    0.7170   67.6960   65.4090 N   0  0  0  0  0  4  0  0  0  0  0  0
    1.6720   67.1030   66.4240 C   0  0  0  0  0  0  0  0  0  0  0  0
    1.4340   67.7000   67.8010 C   0  0  0  0  0  0  0  0  0  0  0  0
    1.3120   68.8370   64.6060 C   0  0  0  0  0  0  0  0  0  0  0  0
    2.8080   68.7400   64.4700 C   0  0  0  0  0  0  0  0  0  0  0  0
    3.6500   69.3820   65.3940 C   0  0  0  0  0  0  0  0  0  0  0  0
    5.0370   69.3100   65.2540 C   0  0  0  0  0  0  0  0  0  0  0  0
    5.5960   68.5970   64.1970 C   0  0  0  0  0  0  0  0  0  0  0  0
    4.7730   67.9500   63.2780 C   0  0  0  0  0  0  0  0  0  0  0  0
    3.3850   68.0180   63.4140 C   0  0  0  0  0  0  0  0  0  0  0  0
    0.8346   66.4686   71.2965 H   0  0  0  0  0  0  0  0  0  0  0  0
    1.9365   66.7058   69.8564 H   0  0  0  0  0  0  0  0  0  0  0  0
   -0.7833   62.1192   73.5931 H   0  0  0  0  0  0  0  0  0  0  0  0
   -0.5389   64.3534   72.5065 H   0  0  0  0  0  0  0  0  0  0  0  0
    2.4414   60.5132   71.1913 H   0  0  0  0  0  0  0  0  0  0  0  0
   -0.9989   57.7598   73.1792 H   0  0  0  0  0  0  0  0  0  0  0  0
   -1.5066   58.0072   74.9214 H   0  0  0  0  0  0  0  0  0  0  0  0
   -1.3908   60.1464   73.6868 H   0  0  0  0  0  0  0  0  0  0  0  0
   -0.2045   60.0620   75.0374 H   0  0  0  0  0  0  0  0  0  0  0  0
    1.4315   58.2004   72.1769 H   0  0  0  0  0  0  0  0  0  0  0  0
    2.6397   59.3337   72.8884 H   0  0  0  0  0  0  0  0  0  0  0  0
    1.9358   58.7049   75.1567 H   0  0  0  0  0  0  0  0  0  0  0  0
    2.4089   57.2314   74.1786 H   0  0  0  0  0  0  0  0  0  0  0  0
   -0.2658   65.3765   68.8201 H   0  0  0  0  0  0  0  0  0  0  0  0
   -0.9340   66.6091   70.0262 H   0  0  0  0  0  0  0  0  0  0  0  0
   -0.2770   68.3825   68.8363 H   0  0  0  0  0  0  0  0  0  0  0  0
   -0.9028   66.1340   66.8574 H   0  0  0  0  0  0  0  0  0  0  0  0
   -1.9949   67.4233   67.4937 H   0  0  0  0  0  0  0  0  0  0  0  0
   -1.4036   67.9322   65.1853 H   0  0  0  0  0  0  0  0  0  0  0  0
   -0.6207   69.1216   66.2870 H   0  0  0  0  0  0  0  0  0  0  0  0
    0.5550   66.9156   64.7566 H   0  0  0  0  0  0  0  0  0  0  0  0
    1.5183   66.0148   66.4711 H   0  0  0  0  0  0  0  0  0  0  0  0
    2.7025   67.3308   66.1140 H   0  0  0  0  0  0  0  0  0  0  0  0
    2.1464   67.2493   68.5076 H   0  0  0  0  0  0  0  0  0  0  0  0
    1.5740   68.7880   67.7194 H   0  0  0  0  0  0  0  0  0  0  0  0
    0.8668   68.8278   63.6002 H   0  0  0  0  0  0  0  0  0  0  0  0
    1.0893   69.7704   65.1438 H   0  0  0  0  0  0  0  0  0  0  0  0
    3.2135   69.9445   66.2325 H   0  0  0  0  0  0  0  0  0  0  0  0
    5.6893   69.8174   65.9800 H   0  0  0  0  0  0  0  0  0  0  0  0
    6.6893   68.5445   64.0873 H   0  0  0  0  0  0  0  0  0  0  0  0
    5.2168   67.3853   62.4448 H   0  0  0  0  0  0  0  0  0  0  0  0
    2.7392   67.5020   62.6883 H   0  0  0  0  0  0  0  0  0  0  0  0
  3  2  2  0
  4  3  1  0
  5  4  2  0
  6  5  1  0
  7  6  2  0
  7  2  1  0
  8  6  1  0
  9  8  1  0
 10  5  1  0
 10  1  1  0
 10  9  2  0
 12 11  1  0
 13 12  1  0
 14 13  1  0
 14  2  1  0
 15 14  1  0
 16 11  1  0
 16 15  1  0
 17  1  1  0
 18 17  1  0
 19 18  1  0
 20 19  1  0
 21 20  1  0
 22 21  1  0
 23 22  1  0
 23 18  1  0
 24 21  1  0
 25 24  1  0
 26 25  2  0
 27 26  1  0
 28 27  2  0
 29 28  1  0
 30 29  2  0
 30 25  1  0
  1 31  1  0
  1 32  1  0
  3 33  1  0
  4 34  1  0
  7 35  1  0
 12 36  1  0
 12 37  1  0
 13 38  1  0
 13 39  1  0
 15 40  1  0
 15 41  1  0
 16 42  1  0
 16 43  1  0
 17 44  1  0
 17 45  1  0
 18 46  1  0
 19 47  1  0
 19 48  1  0
 20 49  1  0
 20 50  1  0
 21 51  1  0
 22 52  1  0
 22 53  1  0
 23 54  1  0
 23 55  1  0
 24 56  1  0
 24 57  1  0
 26 58  1  0
 27 59  1  0
 28 60  1  0
 29 61  1  0
 30 62  1  0
M  CHG  1  21   1
M  END
>  <score>  (2) 
-10.206

$$$$
=
     RDKit          3D

 62 66  0  0  0  0  0  0  0  0999 V2000
    1.8700   65.3600   70.3080 C   0  0  0  0  0  0  0  0  0  0  0  0
    2.1270   60.4710   72.7050 C   0  0  0  0  0  0  0  0  0  0  0  0
    1.6630   61.6630   73.3000 C   0  0  0  0  0  0  0  0  0  0  0  0
    1.6180   62.9000   72.6270 C   0  0  0  0  0  0  0  0  0  0  0  0
    2.0600   62.9430   71.3000 C   0  0  0  0  0  0  0  0  0  0  0  0
    2.5200   61.7760   70.7230 C   0  0  0  0  0  0  0  0  0  0  0  0
    2.5750   60.5430   71.3730 C   0  0  0  0  0  0  0  0  0  0  0  0
    2.9040   62.0270   69.4430 O   0  0  0  0  0  0  0  0  0  0  0  0
    2.7060   63.3680   69.1530 N   0  0  0  0  0  0  0  0  0  0  0  0
    2.1980   63.9080   70.2710 C   0  0  0  0  0  0  0  0  0  0  0  0
    2.3180   56.6380   74.7100 O   0  0  0  0  0  0  0  0  0  0  0  0
    2.8650   57.8350   75.2800 C   0  0  0  0  0  0  0  0  0  0  0  0
    3.3040   58.8820   74.2410 C   0  0  0  0  0  0  0  0  0  0  0  0
    2.1530   59.2800   73.4120 N   0  0  0  0  0  0  0  0  0  0  0  0
    1.1230   58.2400   73.2200 C   0  0  0  0  0  0  0  0  0  0  0  0
    1.7310   56.8400   73.4180 C   0  0  0  0  0  0  0  0  0  0  0  0
    0.3770   65.6630   70.1030 C   0  0  0  0  0  0  0  0  0  0  0  0
    0.0400   66.8610   69.1870 C   0  0  0  0  0  0  0  0  0  0  0  0
   -1.1160   66.4870   68.2400 C   0  0  0  0  0  0  0  0  0  0  0  0
   -1.2260   67.4900   67.1050 C   0  0  0  0  0  0  0  0  0  0  0  0
    0.0100   67.4270   66.2350 N   0  0  0  0  0  4  0  0  0  0  0  0
    1.2630   66.9680   66.9530 C   0  0  0  0  0  0  0  0  0  0  0  0
    1.2460   67.4170   68.4040 C   0  0  0  0  0  0  0  0  0  0  0  0
    0.1940   68.7120   65.4500 C   0  0  0  0  0  0  0  0  0  0  0  0
    1.4630   68.7290   64.6410 C   0  0  0  0  0  0  0  0  0  0  0  0
    1.4450   68.3810   63.2800 C   0  0  0  0  0  0  0  0  0  0  0  0
    2.6270   68.3760   62.5360 C   0  0  0  0  0  0  0  0  0  0  0  0
    3.8330   68.7190   63.1410 C   0  0  0  0  0  0  0  0  0  0  0  0
    3.8640   69.0730   64.4880 C   0  0  0  0  0  0  0  0  0  0  0  0
    2.6850   69.0800   65.2360 C   0  0  0  0  0  0  0  0  0  0  0  0
    2.1740   65.7596   71.2867 H   0  0  0  0  0  0  0  0  0  0  0  0
    2.4107   65.8324   69.4747 H   0  0  0  0  0  0  0  0  0  0  0  0
    1.3183   61.6247   74.3439 H   0  0  0  0  0  0  0  0  0  0  0  0
    1.2465   63.8051   73.1298 H   0  0  0  0  0  0  0  0  0  0  0  0
    2.9586   59.6501   70.8577 H   0  0  0  0  0  0  0  0  0  0  0  0
    2.1007   58.2900   75.9272 H   0  0  0  0  0  0  0  0  0  0  0  0
    3.7685   57.5388   75.8331 H   0  0  0  0  0  0  0  0  0  0  0  0
    3.7024   59.7661   74.7602 H   0  0  0  0  0  0  0  0  0  0  0  0
    4.0817   58.4474   73.5957 H   0  0  0  0  0  0  0  0  0  0  0  0
    0.3149   58.3909   73.9508 H   0  0  0  0  0  0  0  0  0  0  0  0
    0.7261   58.3153   72.1969 H   0  0  0  0  0  0  0  0  0  0  0  0
    2.5105   56.6903   72.6564 H   0  0  0  0  0  0  0  0  0  0  0  0
    0.9060   56.1183   73.3263 H   0  0  0  0  0  0  0  0  0  0  0  0
   -0.0900   64.7670   69.6680 H   0  0  0  0  0  0  0  0  0  0  0  0
   -0.0052   65.9379   71.0972 H   0  0  0  0  0  0  0  0  0  0  0  0
   -0.2722   67.6822   69.8489 H   0  0  0  0  0  0  0  0  0  0  0  0
   -0.9306   65.4868   67.8213 H   0  0  0  0  0  0  0  0  0  0  0  0
   -2.0566   66.4937   68.8103 H   0  0  0  0  0  0  0  0  0  0  0  0
   -2.1118   67.2553   66.4965 H   0  0  0  0  0  0  0  0  0  0  0  0
   -1.3191   68.5019   67.5261 H   0  0  0  0  0  0  0  0  0  0  0  0
   -0.1585   66.6744   65.5523 H   0  0  0  0  0  0  0  0  0  0  0  0
    1.3189   65.8701   66.9155 H   0  0  0  0  0  0  0  0  0  0  0  0
    2.1380   67.4121   66.4558 H   0  0  0  0  0  0  0  0  0  0  0  0
    2.1703   67.0711   68.8899 H   0  0  0  0  0  0  0  0  0  0  0  0
    1.1678   68.5142   68.4104 H   0  0  0  0  0  0  0  0  0  0  0  0
   -0.6595   68.8306   64.7662 H   0  0  0  0  0  0  0  0  0  0  0  0
    0.2551   69.5359   66.1762 H   0  0  0  0  0  0  0  0  0  0  0  0
    0.4942   68.1108   62.7974 H   0  0  0  0  0  0  0  0  0  0  0  0
    2.6050   68.1008   61.4712 H   0  0  0  0  0  0  0  0  0  0  0  0
    4.7634   68.7105   62.5542 H   0  0  0  0  0  0  0  0  0  0  0  0
    4.8178   69.3471   64.9626 H   0  0  0  0  0  0  0  0  0  0  0  0
    2.7139   69.3625   66.2987 H   0  0  0  0  0  0  0  0  0  0  0  0
  3  2  2  0
  4  3  1  0
  5  4  2  0
  6  5  1  0
  7  6  2  0
  7  2  1  0
  8  6  1  0
  9  8  1  0
 10  5  1  0
 10  1  1  0
 10  9  2  0
 12 11  1  0
 13 12  1  0
 14 13  1  0
 14  2  1  0
 15 14  1  0
 16 11  1  0
 16 15  1  0
 17  1  1  0
 18 17  1  0
 19 18  1  0
 20 19  1  0
 21 20  1  0
 22 21  1  0
 23 22  1  0
 23 18  1  0
 24 21  1  0
 25 24  1  0
 26 25  2  0
 27 26  1  0
 28 27  2  0
 29 28  1  0
 30 29  2  0
 30 25  1  0
  1 31  1  0
  1 32  1  0
  3 33  1  0
  4 34  1  0
  7 35  1  0
 12 36  1  0
 12 37  1  0
 13 38  1  0
 13 39  1  0
 15 40  1  0
 15 41  1  0
 16 42  1  0
 16 43  1  0
 17 44  1  0
 17 45  1  0
 18 46  1  0
 19 47  1  0
 19 48  1  0
 20 49  1  0
 20 50  1  0
 21 51  1  0
 22 52  1  0
 22 53  1  0
 23 54  1  0
 23 55  1  0
 24 56  1  0
 24 57  1  0
 26 58  1  0
 27 59  1  0
 28 60  1  0
 29 61  1  0
 30 62  1  0
M  CHG  1  21   1
M  END
>  <score>  (3) 
-10.196

$$$$
=
     RDKit          3D

 62 66  0  0  0  0  0  0  0  0999 V2000
    0.6240   66.3970   70.1200 C   0  0  0  0  0  0  0  0  0  0  0  0
    0.9280   68.2390   64.9990 C   0  0  0  0  0  0  0  0  0  0  0  0
    2.0200   67.9890   65.8560 C   0  0  0  0  0  0  0  0  0  0  0  0
    1.8780   67.5090   67.1730 C   0  0  0  0  0  0  0  0  0  0  0  0
    0.5850   67.2730   67.6510 C   0  0  0  0  0  0  0  0  0  0  0  0
   -0.4820   67.5260   66.8130 C   0  0  0  0  0  0  0  0  0  0  0  0
   -0.3630   68.0040   65.5070 C   0  0  0  0  0  0  0  0  0  0  0  0
   -1.6420   67.2400   67.4600 O   0  0  0  0  0  0  0  0  0  0  0  0
   -1.3610   66.7940   68.7430 N   0  0  0  0  0  0  0  0  0  0  0  0
   -0.0240   66.8150   68.8470 C   0  0  0  0  0  0  0  0  0  0  0  0
    1.5830   69.4830   60.9030 O   0  0  0  0  0  0  0  0  0  0  0  0
    0.3880   69.8080   61.6260 C   0  0  0  0  0  0  0  0  0  0  0  0
    0.0270   68.7980   62.7300 C   0  0  0  0  0  0  0  0  0  0  0  0
    1.1210   68.7150   63.7120 N   0  0  0  0  0  0  0  0  0  0  0  0
    2.4730   68.9750   63.1760 C   0  0  0  0  0  0  0  0  0  0  0  0
    2.5110   68.6980   61.6630 C   0  0  0  0  0  0  0  0  0  0  0  0
    0.4590   64.9020   70.4370 C   0  0  0  0  0  0  0  0  0  0  0  0
    1.6570   64.2100   71.1260 C   0  0  0  0  0  0  0  0  0  0  0  0
    2.8660   64.1850   70.1730 C   0  0  0  0  0  0  0  0  0  0  0  0
    3.9200   63.2100   70.6690 C   0  0  0  0  0  0  0  0  0  0  0  0
    3.3800   61.7980   70.6320 N   0  0  0  0  0  4  0  0  0  0  0  0
    1.8760   61.6950   70.7790 C   0  0  0  0  0  0  0  0  0  0  0  0
    1.3450   62.8030   71.6730 C   0  0  0  0  0  0  0  0  0  0  0  0
    4.1480   60.8930   71.5770 C   0  0  0  0  0  0  0  0  0  0  0  0
    3.4270   59.6050   71.8720 C   0  0  0  0  0  0  0  0  0  0  0  0
    3.4490   58.5500   70.9460 C   0  0  0  0  0  0  0  0  0  0  0  0
    2.7610   57.3630   71.2100 C   0  0  0  0  0  0  0  0  0  0  0  0
    2.0500   57.2190   72.3980 C   0  0  0  0  0  0  0  0  0  0  0  0
    2.0270   58.2560   73.3290 C   0  0  0  0  0  0  0  0  0  0  0  0
    2.7130   59.4440   73.0690 C   0  0  0  0  0  0  0  0  0  0  0  0
    1.6989   66.6208   70.0521 H   0  0  0  0  0  0  0  0  0  0  0  0
    0.1291   66.9533   70.9297 H   0  0  0  0  0  0  0  0  0  0  0  0
    3.0349   68.1786   65.4765 H   0  0  0  0  0  0  0  0  0  0  0  0
    2.7582   67.3253   67.8066 H   0  0  0  0  0  0  0  0  0  0  0  0
   -1.2549   68.1920   64.8912 H   0  0  0  0  0  0  0  0  0  0  0  0
    0.5239   70.7951   62.0919 H   0  0  0  0  0  0  0  0  0  0  0  0
   -0.4371   69.7913   60.8987 H   0  0  0  0  0  0  0  0  0  0  0  0
   -0.8933   69.1248   63.2363 H   0  0  0  0  0  0  0  0  0  0  0  0
   -0.1286   67.8076   62.2773 H   0  0  0  0  0  0  0  0  0  0  0  0
    2.7397   70.0263   63.3591 H   0  0  0  0  0  0  0  0  0  0  0  0
    3.1908   68.3105   63.6792 H   0  0  0  0  0  0  0  0  0  0  0  0
    2.2796   67.6350   61.5001 H   0  0  0  0  0  0  0  0  0  0  0  0
    3.5182   68.9705   61.3148 H   0  0  0  0  0  0  0  0  0  0  0  0
   -0.4146   64.7941   71.0966 H   0  0  0  0  0  0  0  0  0  0  0  0
    0.3564   64.4056   69.4608 H   0  0  0  0  0  0  0  0  0  0  0  0
    1.8976   64.8123   72.0144 H   0  0  0  0  0  0  0  0  0  0  0  0
    2.5305   63.8759   69.1720 H   0  0  0  0  0  0  0  0  0  0  0  0
    3.3063   65.1922   70.1335 H   0  0  0  0  0  0  0  0  0  0  0  0
    4.8091   63.2765   70.0247 H   0  0  0  0  0  0  0  0  0  0  0  0
    4.1883   63.4659   71.7046 H   0  0  0  0  0  0  0  0  0  0  0  0
    3.5465   61.4523   69.6762 H   0  0  0  0  0  0  0  0  0  0  0  0
    1.4099   61.7780   69.7861 H   0  0  0  0  0  0  0  0  0  0  0  0
    1.6317   60.7249   71.2363 H   0  0  0  0  0  0  0  0  0  0  0  0
    0.2539   62.6930   71.7593 H   0  0  0  0  0  0  0  0  0  0  0  0
    1.8420   62.7086   72.6498 H   0  0  0  0  0  0  0  0  0  0  0  0
    5.1203   60.6543   71.1213 H   0  0  0  0  0  0  0  0  0  0  0  0
    4.2626   61.4320   72.5290 H   0  0  0  0  0  0  0  0  0  0  0  0
    4.0114   58.6586   70.0069 H   0  0  0  0  0  0  0  0  0  0  0  0
    2.7812   56.5417   70.4785 H   0  0  0  0  0  0  0  0  0  0  0  0
    1.5054   56.2854   72.6024 H   0  0  0  0  0  0  0  0  0  0  0  0
    1.4681   58.1384   74.2691 H   0  0  0  0  0  0  0  0  0  0  0  0
    2.6935   60.2590   73.8075 H   0  0  0  0  0  0  0  0  0  0  0  0
  3  2  2  0
  4  3  1  0
  5  4  2  0
  6  5  1  0
  7  6  2  0
  7  2  1  0
  8  6  1  0
  9  8  1  0
 10  5  1  0
 10  1  1  0
 10  9  2  0
 12 11  1  0
 13 12  1  0
 14 13  1  0
 14  2  1  0
 15 14  1  0
 16 11  1  0
 16 15  1  0
 17  1  1  0
 18 17  1  0
 19 18  1  0
 20 19  1  0
 21 20  1  0
 22 21  1  0
 23 22  1  0
 23 18  1  0
 24 21  1  0
 25 24  1  0
 26 25  2  0
 27 26  1  0
 28 27  2  0
 29 28  1  0
 30 29  2  0
 30 25  1  0
  1 31  1  0
  1 32  1  0
  3 33  1  0
  4 34  1  0
  7 35  1  0
 12 36  1  0
 12 37  1  0
 13 38  1  0
 13 39  1  0
 15 40  1  0
 15 41  1  0
 16 42  1  0
 16 43  1  0
 17 44  1  0
 17 45  1  0
 18 46  1  0
 19 47  1  0
 19 48  1  0
 20 49  1  0
 20 50  1  0
 21 51  1  0
 22 52  1  0
 22 53  1  0
 23 54  1  0
 23 55  1  0
 24 56  1  0
 24 57  1  0
 26 58  1  0
 27 59  1  0
 28 60  1  0
 29 61  1  0
 30 62  1  0
M  CHG  1  21   1
M  END
>  <score>  (4) 
-10.09

$$$$
=
     RDKit          3D

 62 66  0  0  0  0  0  0  0  0999 V2000
    1.0700   63.8420   70.1370 C   0  0  0  0  0  0  0  0  0  0  0  0
    2.4050   59.8250   73.5710 C   0  0  0  0  0  0  0  0  0  0  0  0
    1.0970   60.1840   73.1830 C   0  0  0  0  0  0  0  0  0  0  0  0
    0.8140   61.2330   72.2860 C   0  0  0  0  0  0  0  0  0  0  0  0
    1.8900   61.9560   71.7600 C   0  0  0  0  0  0  0  0  0  0  0  0
    3.1680   61.6080   72.1480 C   0  0  0  0  0  0  0  0  0  0  0  0
    3.4690   60.5740   73.0360 C   0  0  0  0  0  0  0  0  0  0  0  0
    4.0640   62.4250   71.5340 O   0  0  0  0  0  0  0  0  0  0  0  0
    3.3910   63.3320   70.7300 N   0  0  0  0  0  0  0  0  0  0  0  0
    2.0890   63.0410   70.8700 C   0  0  0  0  0  0  0  0  0  0  0  0
    3.1670   56.4280   76.1450 O   0  0  0  0  0  0  0  0  0  0  0  0
    3.7910   57.7030   76.3460 C   0  0  0  0  0  0  0  0  0  0  0  0
    3.9500   58.5340   75.0610 C   0  0  0  0  0  0  0  0  0  0  0  0
    2.6290   58.7860   74.4590 N   0  0  0  0  0  0  0  0  0  0  0  0
    1.6150   57.7400   74.7020 C   0  0  0  0  0  0  0  0  0  0  0  0
    2.2950   56.3940   75.0080 C   0  0  0  0  0  0  0  0  0  0  0  0
    0.4680   64.9870   70.9680 C   0  0  0  0  0  0  0  0  0  0  0  0
    0.2090   66.3150   70.2200 C   0  0  0  0  0  0  0  0  0  0  0  0
   -0.7410   66.0700   69.0320 C   0  0  0  0  0  0  0  0  0  0  0  0
   -0.7250   67.2530   68.0800 C   0  0  0  0  0  0  0  0  0  0  0  0
    0.6420   67.3930   67.4480 N   0  0  0  0  0  4  0  0  0  0  0  0
    1.7840   66.8630   68.2910 C   0  0  0  0  0  0  0  0  0  0  0  0
    1.4900   67.0460   69.7710 C   0  0  0  0  0  0  0  0  0  0  0  0
    0.8670   68.8020   66.9350 C   0  0  0  0  0  0  0  0  0  0  0  0
    2.3230   69.1840   66.8880 C   0  0  0  0  0  0  0  0  0  0  0  0
    2.9330   69.8000   67.9930 C   0  0  0  0  0  0  0  0  0  0  0  0
    4.2770   70.1740   67.9400 C   0  0  0  0  0  0  0  0  0  0  0  0
    5.0230   69.9350   66.7890 C   0  0  0  0  0  0  0  0  0  0  0  0
    4.4320   69.3180   65.6880 C   0  0  0  0  0  0  0  0  0  0  0  0
    3.0880   68.9420   65.7370 C   0  0  0  0  0  0  0  0  0  0  0  0
    1.5448   64.2739   69.2437 H   0  0  0  0  0  0  0  0  0  0  0  0
    0.2449   63.1593   69.8857 H   0  0  0  0  0  0  0  0  0  0  0  0
    0.2541   59.6153   73.6027 H   0  0  0  0  0  0  0  0  0  0  0  0
   -0.2220   61.4762   72.0076 H   0  0  0  0  0  0  0  0  0  0  0  0
    4.5106   60.3507   73.3103 H   0  0  0  0  0  0  0  0  0  0  0  0
    3.1795   58.2788   77.0563 H   0  0  0  0  0  0  0  0  0  0  0  0
    4.8052   57.5040   76.7226 H   0  0  0  0  0  0  0  0  0  0  0  0
    4.4288   59.4939   75.3045 H   0  0  0  0  0  0  0  0  0  0  0  0
    4.5735   57.9779   74.3454 H   0  0  0  0  0  0  0  0  0  0  0  0
    0.9900   58.0332   75.5584 H   0  0  0  0  0  0  0  0  0  0  0  0
    0.9939   57.6291   73.8009 H   0  0  0  0  0  0  0  0  0  0  0  0
    2.8846   56.0962   74.1284 H   0  0  0  0  0  0  0  0  0  0  0  0
    1.4936   55.6778   75.2421 H   0  0  0  0  0  0  0  0  0  0  0  0
   -0.4933   64.6376   71.3727 H   0  0  0  0  0  0  0  0  0  0  0  0
    1.2239   65.2235   71.7314 H   0  0  0  0  0  0  0  0  0  0  0  0
   -0.2677   66.9940   70.9422 H   0  0  0  0  0  0  0  0  0  0  0  0
   -0.4188   65.1674   68.4920 H   0  0  0  0  0  0  0  0  0  0  0  0
   -1.7631   65.9394   69.4172 H   0  0  0  0  0  0  0  0  0  0  0  0
   -1.4759   67.0958   67.2917 H   0  0  0  0  0  0  0  0  0  0  0  0
   -0.9578   68.1700   68.6412 H   0  0  0  0  0  0  0  0  0  0  0  0
    0.6442   66.7668   66.6302 H   0  0  0  0  0  0  0  0  0  0  0  0
    1.9217   65.7922   68.0800 H   0  0  0  0  0  0  0  0  0  0  0  0
    2.6975   67.4223   68.0404 H   0  0  0  0  0  0  0  0  0  0  0  0
    2.3396   66.6538   70.3493 H   0  0  0  0  0  0  0  0  0  0  0  0
    1.3376   68.1209   69.9482 H   0  0  0  0  0  0  0  0  0  0  0  0
    0.4520   68.8759   65.9190 H   0  0  0  0  0  0  0  0  0  0  0  0
    0.3678   69.4905   67.6327 H   0  0  0  0  0  0  0  0  0  0  0  0
    2.3484   69.9889   68.9055 H   0  0  0  0  0  0  0  0  0  0  0  0
    4.7472   70.6581   68.8087 H   0  0  0  0  0  0  0  0  0  0  0  0
    6.0809   70.2337   66.7486 H   0  0  0  0  0  0  0  0  0  0  0  0
    5.0240   69.1272   64.7807 H   0  0  0  0  0  0  0  0  0  0  0  0
    2.6258   68.4526   64.8670 H   0  0  0  0  0  0  0  0  0  0  0  0
  3  2  2  0
  4  3  1  0
  5  4  2  0
  6  5  1  0
  7  6  2  0
  7  2  1  0
  8  6  1  0
  9  8  1  0
 10  5  1  0
 10  1  1  0
 10  9  2  0
 12 11  1  0
 13 12  1  0
 14 13  1  0
 14  2  1  0
 15 14  1  0
 16 11  1  0
 16 15  1  0
 17  1  1  0
 18 17  1  0
 19 18  1  0
 20 19  1  0
 21 20  1  0
 22 21  1  0
 23 22  1  0
 23 18  1  0
 24 21  1  0
 25 24  1  0
 26 25  2  0
 27 26  1  0
 28 27  2  0
 29 28  1  0
 30 29  2  0
 30 25  1  0
  1 31  1  0
  1 32  1  0
  3 33  1  0
  4 34  1  0
  7 35  1  0
 12 36  1  0
 12 37  1  0
 13 38  1  0
 13 39  1  0
 15 40  1  0
 15 41  1  0
 16 42  1  0
 16 43  1  0
 17 44  1  0
 17 45  1  0
 18 46  1  0
 19 47  1  0
 19 48  1  0
 20 49  1  0
 20 50  1  0
 21 51  1  0
 22 52  1  0
 22 53  1  0
 23 54  1  0
 23 55  1  0
 24 56  1  0
 24 57  1  0
 26 58  1  0
 27 59  1  0
 28 60  1  0
 29 61  1  0
 30 62  1  0
M  CHG  1  21   1
M  END
>  <score>  (5) 
-9.685

$$$$
=
     RDKit          3D

 62 66  0  0  0  0  0  0  0  0999 V2000
    4.6720   60.2900   71.7030 C   0  0  0  0  0  0  0  0  0  0  0  0
    0.9790   57.1810   74.2340 C   0  0  0  0  0  0  0  0  0  0  0  0
    1.5540   58.3650   74.7420 C   0  0  0  0  0  0  0  0  0  0  0  0
    2.5040   59.1290   74.0380 C   0  0  0  0  0  0  0  0  0  0  0  0
    2.8980   58.6850   72.7700 C   0  0  0  0  0  0  0  0  0  0  0  0
    2.3380   57.5230   72.2800 C   0  0  0  0  0  0  0  0  0  0  0  0
    1.3980   56.7500   72.9630 C   0  0  0  0  0  0  0  0  0  0  0  0
    2.8490   57.2610   71.0470 O   0  0  0  0  0  0  0  0  0  0  0  0
    3.7590   58.2490   70.7030 N   0  0  0  0  0  0  0  0  0  0  0  0
    3.7790   59.0990   71.7410 C   0  0  0  0  0  0  0  0  0  0  0  0
   -1.7480   54.7540   76.5630 O   0  0  0  0  0  0  0  0  0  0  0  0
   -1.4650   56.1220   76.8860 C   0  0  0  0  0  0  0  0  0  0  0  0
   -0.0750   56.6000   76.4310 C   0  0  0  0  0  0  0  0  0  0  0  0
    0.0490   56.4630   74.9700 N   0  0  0  0  0  0  0  0  0  0  0  0
   -0.7350   55.3660   74.3690 C   0  0  0  0  0  0  0  0  0  0  0  0
   -1.0280   54.2790   75.4180 C   0  0  0  0  0  0  0  0  0  0  0  0
    4.2080   61.3800   70.7240 C   0  0  0  0  0  0  0  0  0  0  0  0
    3.2690   62.4650   71.3000 C   0  0  0  0  0  0  0  0  0  0  0  0
    1.8060   61.9890   71.2160 C   0  0  0  0  0  0  0  0  0  0  0  0
    0.8510   63.1500   71.4300 C   0  0  0  0  0  0  0  0  0  0  0  0
    0.9890   64.1490   70.3010 N   0  0  0  0  0  4  0  0  0  0  0  0
    2.3540   64.1760   69.6470 C   0  0  0  0  0  0  0  0  0  0  0  0
    3.4420   63.8560   70.6580 C   0  0  0  0  0  0  0  0  0  0  0  0
    0.4850   65.5180   70.7180 C   0  0  0  0  0  0  0  0  0  0  0  0
    0.3310   66.4640   69.5570 C   0  0  0  0  0  0  0  0  0  0  0  0
   -0.8350   66.4480   68.7750 C   0  0  0  0  0  0  0  0  0  0  0  0
   -0.9670   67.3110   67.6850 C   0  0  0  0  0  0  0  0  0  0  0  0
    0.0580   68.1970   67.3680 C   0  0  0  0  0  0  0  0  0  0  0  0
    1.2170   68.2290   68.1410 C   0  0  0  0  0  0  0  0  0  0  0  0
    1.3540   67.3680   69.2320 C   0  0  0  0  0  0  0  0  0  0  0  0
    4.7137   60.7250   72.7125 H   0  0  0  0  0  0  0  0  0  0  0  0
    5.6558   59.9428   71.3542 H   0  0  0  0  0  0  0  0  0  0  0  0
    1.2440   58.7089   75.7398 H   0  0  0  0  0  0  0  0  0  0  0  0
    2.9246   60.0483   74.4716 H   0  0  0  0  0  0  0  0  0  0  0  0
    0.9955   55.8278   72.5186 H   0  0  0  0  0  0  0  0  0  0  0  0
   -2.2235   56.7552   76.4025 H   0  0  0  0  0  0  0  0  0  0  0  0
   -1.4838   56.1995   77.9831 H   0  0  0  0  0  0  0  0  0  0  0  0
    0.0573   57.6555   76.7108 H   0  0  0  0  0  0  0  0  0  0  0  0
    0.6965   55.9863   76.9190 H   0  0  0  0  0  0  0  0  0  0  0  0
   -1.6855   55.7668   73.9871 H   0  0  0  0  0  0  0  0  0  0  0  0
   -0.1548   54.9215   73.5470 H   0  0  0  0  0  0  0  0  0  0  0  0
   -0.0698   53.8613   75.7605 H   0  0  0  0  0  0  0  0  0  0  0  0
   -1.6662   53.5281   74.9292 H   0  0  0  0  0  0  0  0  0  0  0  0
    5.1047   61.8850   70.3355 H   0  0  0  0  0  0  0  0  0  0  0  0
    3.6151   60.8549   69.9607 H   0  0  0  0  0  0  0  0  0  0  0  0
    3.5562   62.6004   72.3532 H   0  0  0  0  0  0  0  0  0  0  0  0
    1.6252   61.5509   70.2233 H   0  0  0  0  0  0  0  0  0  0  0  0
    1.6324   61.2387   72.0015 H   0  0  0  0  0  0  0  0  0  0  0  0
   -0.1816   62.7719   71.4576 H   0  0  0  0  0  0  0  0  0  0  0  0
    1.0926   63.6454   72.3820 H   0  0  0  0  0  0  0  0  0  0  0  0
    0.3746   63.8148   69.5449 H   0  0  0  0  0  0  0  0  0  0  0  0
    2.3817   63.4302   68.8389 H   0  0  0  0  0  0  0  0  0  0  0  0
    2.5323   65.1837   69.2436 H   0  0  0  0  0  0  0  0  0  0  0  0
    4.4163   63.8895   70.1485 H   0  0  0  0  0  0  0  0  0  0  0  0
    3.3771   64.6031   71.4627 H   0  0  0  0  0  0  0  0  0  0  0  0
   -0.4938   65.3982   71.2054 H   0  0  0  0  0  0  0  0  0  0  0  0
    1.2315   65.9511   71.4000 H   0  0  0  0  0  0  0  0  0  0  0  0
   -1.6496   65.7514   69.0224 H   0  0  0  0  0  0  0  0  0  0  0  0
   -1.8828   67.2903   67.0760 H   0  0  0  0  0  0  0  0  0  0  0  0
   -0.0467   68.8728   66.5064 H   0  0  0  0  0  0  0  0  0  0  0  0
    2.0246   68.9330   67.8917 H   0  0  0  0  0  0  0  0  0  0  0  0
    2.2698   67.3986   69.8406 H   0  0  0  0  0  0  0  0  0  0  0  0
  3  2  2  0
  4  3  1  0
  5  4  2  0
  6  5  1  0
  7  6  2  0
  7  2  1  0
  8  6  1  0
  9  8  1  0
 10  5  1  0
 10  1  1  0
 10  9  2  0
 12 11  1  0
 13 12  1  0
 14 13  1  0
 14  2  1  0
 15 14  1  0
 16 11  1  0
 16 15  1  0
 17  1  1  0
 18 17  1  0
 19 18  1  0
 20 19  1  0
 21 20  1  0
 22 21  1  0
 23 22  1  0
 23 18  1  0
 24 21  1  0
 25 24  1  0
 26 25  2  0
 27 26  1  0
 28 27  2  0
 29 28  1  0
 30 29  2  0
 30 25  1  0
  1 31  1  0
  1 32  1  0
  3 33  1  0
  4 34  1  0
  7 35  1  0
 12 36  1  0
 12 37  1  0
 13 38  1  0
 13 39  1  0
 15 40  1  0
 15 41  1  0
 16 42  1  0
 16 43  1  0
 17 44  1  0
 17 45  1  0
 18 46  1  0
 19 47  1  0
 19 48  1  0
 20 49  1  0
 20 50  1  0
 21 51  1  0
 22 52  1  0
 22 53  1  0
 23 54  1  0
 23 55  1  0
 24 56  1  0
 24 57  1  0
 26 58  1  0
 27 59  1  0
 28 60  1  0
 29 61  1  0
 30 62  1  0
M  CHG  1  21   1
M  END
>  <score>  (6) 
-9.196

$$$$
=
     RDKit          3D

 62 66  0  0  0  0  0  0  0  0999 V2000
    3.0220   61.7060   71.8590 C   0  0  0  0  0  0  0  0  0  0  0  0
    1.5100   56.7650   73.5950 C   0  0  0  0  0  0  0  0  0  0  0  0
    1.2370   57.9900   74.2400 C   0  0  0  0  0  0  0  0  0  0  0  0
    1.6530   59.2390   73.7390 C   0  0  0  0  0  0  0  0  0  0  0  0
    2.3770   59.2600   72.5420 C   0  0  0  0  0  0  0  0  0  0  0  0
    2.6480   58.0600   71.9170 C   0  0  0  0  0  0  0  0  0  0  0  0
    2.2470   56.8120   72.3980 C   0  0  0  0  0  0  0  0  0  0  0  0
    3.3580   58.2930   70.7810 O   0  0  0  0  0  0  0  0  0  0  0  0
    3.5700   59.6550   70.6370 N   0  0  0  0  0  0  0  0  0  0  0  0
    2.9770   60.2270   71.6960 C   0  0  0  0  0  0  0  0  0  0  0  0
    0.0520   52.9540   75.0450 O   0  0  0  0  0  0  0  0  0  0  0  0
    1.4360   53.3240   75.1040 C   0  0  0  0  0  0  0  0  0  0  0  0
    1.8670   54.3220   74.0160 C   0  0  0  0  0  0  0  0  0  0  0  0
    1.0800   55.5620   74.1310 N   0  0  0  0  0  0  0  0  0  0  0  0
   -0.2840   55.3960   74.6700 C   0  0  0  0  0  0  0  0  0  0  0  0
   -0.7790   53.9570   74.4450 C   0  0  0  0  0  0  0  0  0  0  0  0
    1.6400   62.3770   71.8040 C   0  0  0  0  0  0  0  0  0  0  0  0
    1.3640   63.2810   70.5810 C   0  0  0  0  0  0  0  0  0  0  0  0
    2.5530   64.2330   70.3550 C   0  0  0  0  0  0  0  0  0  0  0  0
    2.1680   65.3570   69.4090 C   0  0  0  0  0  0  0  0  0  0  0  0
    1.1030   66.2260   70.0420 N   0  0  0  0  0  4  0  0  0  0  0  0
    0.2210   65.5120   71.0450 C   0  0  0  0  0  0  0  0  0  0  0  0
    0.0330   64.0550   70.6550 C   0  0  0  0  0  0  0  0  0  0  0  0
    0.3290   66.9960   68.9890 C   0  0  0  0  0  0  0  0  0  0  0  0
    1.2200   67.7710   68.0550 C   0  0  0  0  0  0  0  0  0  0  0  0
    1.3110   67.4140   66.7000 C   0  0  0  0  0  0  0  0  0  0  0  0
    2.1540   68.1190   65.8380 C   0  0  0  0  0  0  0  0  0  0  0  0
    2.9100   69.1840   66.3200 C   0  0  0  0  0  0  0  0  0  0  0  0
    2.8230   69.5530   67.6600 C   0  0  0  0  0  0  0  0  0  0  0  0
    1.9810   68.8520   68.5250 C   0  0  0  0  0  0  0  0  0  0  0  0
    3.4801   61.9341   72.8327 H   0  0  0  0  0  0  0  0  0  0  0  0
    3.6060   62.1043   71.0162 H   0  0  0  0  0  0  0  0  0  0  0  0
    0.6702   57.9684   75.1825 H   0  0  0  0  0  0  0  0  0  0  0  0
    1.4156   60.1707   74.2733 H   0  0  0  0  0  0  0  0  0  0  0  0
    2.5009   55.8897   71.8550 H   0  0  0  0  0  0  0  0  0  0  0  0
    1.6302   53.7791   76.0864 H   0  0  0  0  0  0  0  0  0  0  0  0
    2.0170   52.4047   74.9388 H   0  0  0  0  0  0  0  0  0  0  0  0
    2.9350   54.5555   74.1380 H   0  0  0  0  0  0  0  0  0  0  0  0
    1.6942   53.8746   73.0261 H   0  0  0  0  0  0  0  0  0  0  0  0
   -0.2761   55.6119   75.7486 H   0  0  0  0  0  0  0  0  0  0  0  0
   -0.9598   56.0908   74.1499 H   0  0  0  0  0  0  0  0  0  0  0  0
   -0.8191   53.7704   73.3617 H   0  0  0  0  0  0  0  0  0  0  0  0
   -1.7661   53.8812   74.9246 H   0  0  0  0  0  0  0  0  0  0  0  0
    0.8808   61.5810   71.8101 H   0  0  0  0  0  0  0  0  0  0  0  0
    1.6048   63.0462   72.6763 H   0  0  0  0  0  0  0  0  0  0  0  0
    1.2549   62.6114   69.7151 H   0  0  0  0  0  0  0  0  0  0  0  0
    2.8603   64.6624   71.3200 H   0  0  0  0  0  0  0  0  0  0  0  0
    3.3822   63.6639   69.9093 H   0  0  0  0  0  0  0  0  0  0  0  0
    3.0554   65.9694   69.1910 H   0  0  0  0  0  0  0  0  0  0  0  0
    1.7740   64.9250   68.4773 H   0  0  0  0  0  0  0  0  0  0  0  0
    1.6023   66.9169   70.6201 H   0  0  0  0  0  0  0  0  0  0  0  0
    0.6905   65.5620   72.0385 H   0  0  0  0  0  0  0  0  0  0  0  0
   -0.7632   66.0029   71.0624 H   0  0  0  0  0  0  0  0  0  0  0  0
   -0.6138   63.5717   71.4020 H   0  0  0  0  0  0  0  0  0  0  0  0
   -0.4181   64.0357   69.6519 H   0  0  0  0  0  0  0  0  0  0  0  0
   -0.2633   66.2825   68.3973 H   0  0  0  0  0  0  0  0  0  0  0  0
   -0.3089   67.7221   69.5142 H   0  0  0  0  0  0  0  0  0  0  0  0
    0.7146   66.5737   66.3150 H   0  0  0  0  0  0  0  0  0  0  0  0
    2.2206   67.8327   64.7780 H   0  0  0  0  0  0  0  0  0  0  0  0
    3.5774   69.7351   65.6411 H   0  0  0  0  0  0  0  0  0  0  0  0
    3.4183   70.3976   68.0372 H   0  0  0  0  0  0  0  0  0  0  0  0
    1.9137   69.1490   69.5820 H   0  0  0  0  0  0  0  0  0  0  0  0
  3  2  2  0
  4  3  1  0
  5  4  2  0
  6  5  1  0
  7  6  2  0
  7  2  1  0
  8  6  1  0
  9  8  1  0
 10  5  1  0
 10  1  1  0
 10  9  2  0
 12 11  1  0
 13 12  1  0
 14 13  1  0
 14  2  1  0
 15 14  1  0
 16 11  1  0
 16 15  1  0
 17  1  1  0
 18 17  1  0
 19 18  1  0
 20 19  1  0
 21 20  1  0
 22 21  1  0
 23 22  1  0
 23 18  1  0
 24 21  1  0
 25 24  1  0
 26 25  2  0
 27 26  1  0
 28 27  2  0
 29 28  1  0
 30 29  2  0
 30 25  1  0
  1 31  1  0
  1 32  1  0
  3 33  1  0
  4 34  1  0
  7 35  1  0
 12 36  1  0
 12 37  1  0
 13 38  1  0
 13 39  1  0
 15 40  1  0
 15 41  1  0
 16 42  1  0
 16 43  1  0
 17 44  1  0
 17 45  1  0
 18 46  1  0
 19 47  1  0
 19 48  1  0
 20 49  1  0
 20 50  1  0
 21 51  1  0
 22 52  1  0
 22 53  1  0
 23 54  1  0
 23 55  1  0
 24 56  1  0
 24 57  1  0
 26 58  1  0
 27 59  1  0
 28 60  1  0
 29 61  1  0
 30 62  1  0
M  CHG  1  21   1
M  END
>  <score>  (7) 
-8.597

$$$$
=
     RDKit          3D

 62 66  0  0  0  0  0  0  0  0999 V2000
   -1.1290   57.0910   75.8020 C   0  0  0  0  0  0  0  0  0  0  0  0
   -5.3920   60.3190   74.7470 C   0  0  0  0  0  0  0  0  0  0  0  0
   -4.0380   60.6250   74.4940 C   0  0  0  0  0  0  0  0  0  0  0  0
   -2.9770   59.7460   74.7860 C   0  0  0  0  0  0  0  0  0  0  0  0
   -3.2880   58.5080   75.3620 C   0  0  0  0  0  0  0  0  0  0  0  0
   -4.6120   58.2160   75.6150 C   0  0  0  0  0  0  0  0  0  0  0  0
   -5.6770   59.0730   75.3350 C   0  0  0  0  0  0  0  0  0  0  0  0
   -4.7030   56.9800   76.1740 O   0  0  0  0  0  0  0  0  0  0  0  0
   -3.4340   56.4340   76.3010 N   0  0  0  0  0  0  0  0  0  0  0  0
   -2.5940   57.3570   75.8100 C   0  0  0  0  0  0  0  0  0  0  0  0
   -8.7040   62.9840   73.9210 O   0  0  0  0  0  0  0  0  0  0  0  0
   -7.4900   63.4310   74.5380 C   0  0  0  0  0  0  0  0  0  0  0  0
   -6.7500   62.3410   75.3320 C   0  0  0  0  0  0  0  0  0  0  0  0
   -6.3990   61.2210   74.4420 N   0  0  0  0  0  0  0  0  0  0  0  0
   -7.3220   61.0000   73.3110 C   0  0  0  0  0  0  0  0  0  0  0  0
   -8.7110   61.5800   73.6310 C   0  0  0  0  0  0  0  0  0  0  0  0
   -0.4960   57.1530   74.4030 C   0  0  0  0  0  0  0  0  0  0  0  0
    0.6800   58.1410   74.2250 C   0  0  0  0  0  0  0  0  0  0  0  0
    0.2520   59.3040   73.3090 C   0  0  0  0  0  0  0  0  0  0  0  0
    1.4640   60.0820   72.8280 C   0  0  0  0  0  0  0  0  0  0  0  0
    2.3270   59.2050   71.9470 N   0  0  0  0  0  4  0  0  0  0  0  0
    2.2320   57.7230   72.2470 C   0  0  0  0  0  0  0  0  0  0  0  0
    1.9840   57.4880   73.7270 C   0  0  0  0  0  0  0  0  0  0  0  0
    3.7510   59.7240   71.8860 C   0  0  0  0  0  0  0  0  0  0  0  0
    3.8930   60.9480   71.0200 C   0  0  0  0  0  0  0  0  0  0  0  0
    3.2270   61.0270   69.7860 C   0  0  0  0  0  0  0  0  0  0  0  0
    3.3770   62.1540   68.9740 C   0  0  0  0  0  0  0  0  0  0  0  0
    4.1870   63.2080   69.3860 C   0  0  0  0  0  0  0  0  0  0  0  0
    4.8460   63.1450   70.6120 C   0  0  0  0  0  0  0  0  0  0  0  0
    4.6990   62.0210   71.4270 C   0  0  0  0  0  0  0  0  0  0  0  0
   -0.6368   57.8405   76.4391 H   0  0  0  0  0  0  0  0  0  0  0  0
   -0.9872   56.0653   76.1731 H   0  0  0  0  0  0  0  0  0  0  0  0
   -3.7987   61.6005   74.0455 H   0  0  0  0  0  0  0  0  0  0  0  0
   -1.9351   60.0236   74.5681 H   0  0  0  0  0  0  0  0  0  0  0  0
   -6.7120   58.7821   75.5678 H   0  0  0  0  0  0  0  0  0  0  0  0
   -6.8177   63.8005   73.7497 H   0  0  0  0  0  0  0  0  0  0  0  0
   -7.7702   64.2132   75.2589 H   0  0  0  0  0  0  0  0  0  0  0  0
   -5.8314   62.7649   75.7639 H   0  0  0  0  0  0  0  0  0  0  0  0
   -7.4042   61.9725   76.1359 H   0  0  0  0  0  0  0  0  0  0  0  0
   -6.9208   61.4941   72.4139 H   0  0  0  0  0  0  0  0  0  0  0  0
   -7.4187   59.9184   73.1354 H   0  0  0  0  0  0  0  0  0  0  0  0
   -9.1149   61.0483   74.5052 H   0  0  0  0  0  0  0  0  0  0  0  0
   -9.3278   61.4441   72.7304 H   0  0  0  0  0  0  0  0  0  0  0  0
   -0.1276   56.1461   74.1572 H   0  0  0  0  0  0  0  0  0  0  0  0
   -1.2910   57.5214   73.7380 H   0  0  0  0  0  0  0  0  0  0  0  0
    0.9199   58.5257   75.2272 H   0  0  0  0  0  0  0  0  0  0  0  0
   -0.2860   58.8993   72.4390 H   0  0  0  0  0  0  0  0  0  0  0  0
   -0.4001   59.9819   73.8793 H   0  0  0  0  0  0  0  0  0  0  0  0
    1.1296   60.9584   72.2534 H   0  0  0  0  0  0  0  0  0  0  0  0
    2.0519   60.4083   73.6986 H   0  0  0  0  0  0  0  0  0  0  0  0
    1.9346   59.2775   70.9974 H   0  0  0  0  0  0  0  0  0  0  0  0
    1.4021   57.2903   71.6690 H   0  0  0  0  0  0  0  0  0  0  0  0
    3.1825   57.2448   71.9681 H   0  0  0  0  0  0  0  0  0  0  0  0
    1.9249   56.4042   73.9057 H   0  0  0  0  0  0  0  0  0  0  0  0
    2.8167   57.9478   74.2795 H   0  0  0  0  0  0  0  0  0  0  0  0
    4.0765   59.9763   72.9060 H   0  0  0  0  0  0  0  0  0  0  0  0
    4.3718   58.9320   71.4418 H   0  0  0  0  0  0  0  0  0  0  0  0
    2.5840   60.1973   69.4571 H   0  0  0  0  0  0  0  0  0  0  0  0
    2.8542   62.2083   68.0077 H   0  0  0  0  0  0  0  0  0  0  0  0
    4.3072   64.0922   68.7428 H   0  0  0  0  0  0  0  0  0  0  0  0
    5.4823   63.9811   70.9379 H   0  0  0  0  0  0  0  0  0  0  0  0
    5.2191   61.9768   72.3953 H   0  0  0  0  0  0  0  0  0  0  0  0
  3  2  2  0
  4  3  1  0
  5  4  2  0
  6  5  1  0
  7  6  2  0
  7  2  1  0
  8  6  1  0
  9  8  1  0
 10  5  1  0
 10  1  1  0
 10  9  2  0
 12 11  1  0
 13 12  1  0
 14 13  1  0
 14  2  1  0
 15 14  1  0
 16 11  1  0
 16 15  1  0
 17  1  1  0
 18 17  1  0
 19 18  1  0
 20 19  1  0
 21 20  1  0
 22 21  1  0
 23 22  1  0
 23 18  1  0
 24 21  1  0
 25 24  1  0
 26 25  2  0
 27 26  1  0
 28 27  2  0
 29 28  1  0
 30 29  2  0
 30 25  1  0
  1 31  1  0
  1 32  1  0
  3 33  1  0
  4 34  1  0
  7 35  1  0
 12 36  1  0
 12 37  1  0
 13 38  1  0
 13 39  1  0
 15 40  1  0
 15 41  1  0
 16 42  1  0
 16 43  1  0
 17 44  1  0
 17 45  1  0
 18 46  1  0
 19 47  1  0
 19 48  1  0
 20 49  1  0
 20 50  1  0
 21 51  1  0
 22 52  1  0
 22 53  1  0
 23 54  1  0
 23 55  1  0
 24 56  1  0
 24 57  1  0
 26 58  1  0
 27 59  1  0
 28 60  1  0
 29 61  1  0
 30 62  1  0
M  CHG  1  21   1
M  END
>  <score>  (8) 
-8.549

$$$$
=
     RDKit          3D

 62 66  0  0  0  0  0  0  0  0999 V2000
    1.3590   56.6400   74.4480 C   0  0  0  0  0  0  0  0  0  0  0  0
   -3.5720   58.8350   75.2040 C   0  0  0  0  0  0  0  0  0  0  0  0
   -2.4530   59.4850   74.6430 C   0  0  0  0  0  0  0  0  0  0  0  0
   -1.2020   58.8620   74.4690 C   0  0  0  0  0  0  0  0  0  0  0  0
   -1.0660   57.5310   74.8810 C   0  0  0  0  0  0  0  0  0  0  0  0
   -2.1610   56.9010   75.4370 C   0  0  0  0  0  0  0  0  0  0  0  0
   -3.4080   57.5010   75.6190 C   0  0  0  0  0  0  0  0  0  0  0  0
   -1.8260   55.6270   75.7720 O   0  0  0  0  0  0  0  0  0  0  0  0
   -0.4990   55.3940   75.4430 N   0  0  0  0  0  0  0  0  0  0  0  0
   -0.0530   56.5400   74.9080 C   0  0  0  0  0  0  0  0  0  0  0  0
   -7.4420   60.7590   75.4760 O   0  0  0  0  0  0  0  0  0  0  0  0
   -6.8240   60.1070   76.5950 C   0  0  0  0  0  0  0  0  0  0  0  0
   -5.8640   58.9700   76.2060 C   0  0  0  0  0  0  0  0  0  0  0  0
   -4.7820   59.4940   75.3560 N   0  0  0  0  0  0  0  0  0  0  0  0
   -5.1440   60.6530   74.5160 C   0  0  0  0  0  0  0  0  0  0  0  0
   -6.6640   60.6870   74.2750 C   0  0  0  0  0  0  0  0  0  0  0  0
    1.5010   56.8910   72.9370 C   0  0  0  0  0  0  0  0  0  0  0  0
    1.9900   58.2960   72.5180 C   0  0  0  0  0  0  0  0  0  0  0  0
    3.0450   58.1730   71.4030 C   0  0  0  0  0  0  0  0  0  0  0  0
    3.7960   59.4810   71.2280 C   0  0  0  0  0  0  0  0  0  0  0  0
    4.5970   59.7900   72.4730 N   0  0  0  0  0  4  0  0  0  0  0  0
    4.0260   59.2100   73.7500 C   0  0  0  0  0  0  0  0  0  0  0  0
    2.5080   59.1580   73.6860 C   0  0  0  0  0  0  0  0  0  0  0  0
    4.9160   61.2700   72.5650 C   0  0  0  0  0  0  0  0  0  0  0  0
    3.9530   62.1270   71.7870 C   0  0  0  0  0  0  0  0  0  0  0  0
    4.3160   62.6460   70.5330 C   0  0  0  0  0  0  0  0  0  0  0  0
    3.4310   63.4590   69.8220 C   0  0  0  0  0  0  0  0  0  0  0  0
    2.1790   63.7590   70.3530 C   0  0  0  0  0  0  0  0  0  0  0  0
    1.8040   63.2440   71.5920 C   0  0  0  0  0  0  0  0  0  0  0  0
    2.6850   62.4300   72.3060 C   0  0  0  0  0  0  0  0  0  0  0  0
    1.8411   57.4704   74.9847 H   0  0  0  0  0  0  0  0  0  0  0  0
    1.8351   55.6711   74.6590 H   0  0  0  0  0  0  0  0  0  0  0  0
   -2.5631   60.5323   74.3251 H   0  0  0  0  0  0  0  0  0  0  0  0
   -0.3563   59.4054   74.0223 H   0  0  0  0  0  0  0  0  0  0  0  0
   -4.2406   56.9453   76.0750 H   0  0  0  0  0  0  0  0  0  0  0  0
   -6.2569   60.8590   77.1633 H   0  0  0  0  0  0  0  0  0  0  0  0
   -7.6336   59.6517   77.1843 H   0  0  0  0  0  0  0  0  0  0  0  0
   -5.4314   58.5306   77.1170 H   0  0  0  0  0  0  0  0  0  0  0  0
   -6.4207   58.2015   75.6496 H   0  0  0  0  0  0  0  0  0  0  0  0
   -4.8368   61.5790   75.0241 H   0  0  0  0  0  0  0  0  0  0  0  0
   -4.6309   60.5656   73.5469 H   0  0  0  0  0  0  0  0  0  0  0  0
   -6.9489   59.7736   73.7323 H   0  0  0  0  0  0  0  0  0  0  0  0
   -6.8756   61.6024   73.7028 H   0  0  0  0  0  0  0  0  0  0  0  0
    2.2167   56.1554   72.5411 H   0  0  0  0  0  0  0  0  0  0  0  0
    0.4836   56.8012   72.5284 H   0  0  0  0  0  0  0  0  0  0  0  0
    1.1089   58.8331   72.1369 H   0  0  0  0  0  0  0  0  0  0  0  0
    3.7591   57.3792   71.6675 H   0  0  0  0  0  0  0  0  0  0  0  0
    2.5353   57.9289   70.4593 H   0  0  0  0  0  0  0  0  0  0  0  0
    4.4772   59.3974   70.3684 H   0  0  0  0  0  0  0  0  0  0  0  0
    3.0727   60.2914   71.0544 H   0  0  0  0  0  0  0  0  0  0  0  0
    5.4920   59.2908   72.3693 H   0  0  0  0  0  0  0  0  0  0  0  0
    4.4164   58.1912   73.8898 H   0  0  0  0  0  0  0  0  0  0  0  0
    4.3222   59.8518   74.5928 H   0  0  0  0  0  0  0  0  0  0  0  0
    2.1305   58.7359   74.6290 H   0  0  0  0  0  0  0  0  0  0  0  0
    2.1473   60.1848   73.5260 H   0  0  0  0  0  0  0  0  0  0  0  0
    4.8792   61.5718   73.6221 H   0  0  0  0  0  0  0  0  0  0  0  0
    5.9156   61.4196   72.1309 H   0  0  0  0  0  0  0  0  0  0  0  0
    5.3032   62.4105   70.1088 H   0  0  0  0  0  0  0  0  0  0  0  0
    3.7230   63.8629   68.8414 H   0  0  0  0  0  0  0  0  0  0  0  0
    1.4852   64.4035   69.7933 H   0  0  0  0  0  0  0  0  0  0  0  0
    0.8131   63.4790   72.0079 H   0  0  0  0  0  0  0  0  0  0  0  0
    2.3831   62.0232   73.2824 H   0  0  0  0  0  0  0  0  0  0  0  0
  3  2  2  0
  4  3  1  0
  5  4  2  0
  6  5  1  0
  7  6  2  0
  7  2  1  0
  8  6  1  0
  9  8  1  0
 10  5  1  0
 10  1  1  0
 10  9  2  0
 12 11  1  0
 13 12  1  0
 14 13  1  0
 14  2  1  0
 15 14  1  0
 16 11  1  0
 16 15  1  0
 17  1  1  0
 18 17  1  0
 19 18  1  0
 20 19  1  0
 21 20  1  0
 22 21  1  0
 23 22  1  0
 23 18  1  0
 24 21  1  0
 25 24  1  0
 26 25  2  0
 27 26  1  0
 28 27  2  0
 29 28  1  0
 30 29  2  0
 30 25  1  0
  1 31  1  0
  1 32  1  0
  3 33  1  0
  4 34  1  0
  7 35  1  0
 12 36  1  0
 12 37  1  0
 13 38  1  0
 13 39  1  0
 15 40  1  0
 15 41  1  0
 16 42  1  0
 16 43  1  0
 17 44  1  0
 17 45  1  0
 18 46  1  0
 19 47  1  0
 19 48  1  0
 20 49  1  0
 20 50  1  0
 21 51  1  0
 22 52  1  0
 22 53  1  0
 23 54  1  0
 23 55  1  0
 24 56  1  0
 24 57  1  0
 26 58  1  0
 27 59  1  0
 28 60  1  0
 29 61  1  0
 30 62  1  0
M  CHG  1  21   1
M  END
>  <score>  (9) 
-8.407

$$$$
