=
     RDKit          3D

 28 29  0  0  0  0  0  0  0  0999 V2000
    1.8520   69.0530   68.0070 C   0  0  2  0  0  0  0  0  0  0  0  0
    3.8040   70.3210   69.6140 F   0  0  0  0  0  0  0  0  0  0  0  0
    4.1210   70.1060   68.3290 C   0  0  0  0  0  0  0  0  0  0  0  0
    5.3660   70.5320   67.8720 C   0  0  0  0  0  0  0  0  0  0  0  0
    5.7210   70.3280   66.5400 C   0  0  0  0  0  0  0  0  0  0  0  0
    4.8270   69.7000   65.6740 C   0  0  0  0  0  0  0  0  0  0  0  0
    3.5780   69.2770   66.1370 C   0  0  0  0  0  0  0  0  0  0  0  0
    3.2080   69.4730   67.4790 C   0  0  0  0  0  0  0  0  0  0  0  0
    1.2120   67.9090   67.1970 C   0  0  0  0  0  0  0  0  0  0  0  0
    1.8250   66.9190   66.8030 O   0  0  0  0  0  0  0  0  0  0  0  0
   -0.2410   67.9920   66.9240 C   0  0  0  0  0  0  0  0  0  0  0  0
   -0.7400   68.8070   65.9010 C   0  0  0  0  0  0  0  0  0  0  0  0
   -2.1180   68.8790   65.6800 C   0  0  0  0  0  0  0  0  0  0  0  0
   -2.9960   68.1410   66.4770 C   0  0  0  0  0  0  0  0  0  0  0  0
   -2.4970   67.3280   67.4940 C   0  0  0  0  0  0  0  0  0  0  0  0
   -1.1240   67.2570   67.7130 C   0  0  0  0  0  0  0  0  0  0  0  0
   -0.6730   66.4370   68.6740 F   0  0  0  0  0  0  0  0  0  0  0  0
    1.0090   70.2020   68.0740 O   0  0  0  0  0  0  0  0  0  0  0  0
    1.9874   68.6378   69.0166 H   0  0  0  0  0  0  0  0  0  0  0  0
    6.0665   71.0277   68.5602 H   0  0  0  0  0  0  0  0  0  0  0  0
    6.7030   70.6613   66.1732 H   0  0  0  0  0  0  0  0  0  0  0  0
    5.1057   69.5368   64.6225 H   0  0  0  0  0  0  0  0  0  0  0  0
    2.8780   68.7861   65.4449 H   0  0  0  0  0  0  0  0  0  0  0  0
   -0.0495   69.3890   65.2730 H   0  0  0  0  0  0  0  0  0  0  0  0
   -2.5121   69.5184   64.8764 H   0  0  0  0  0  0  0  0  0  0  0  0
   -4.0804   68.2011   66.3025 H   0  0  0  0  0  0  0  0  0  0  0  0
   -3.1864   66.7442   68.1216 H   0  0  0  0  0  0  0  0  0  0  0  0
    0.8399   70.4324   69.0218 H   0  0  0  0  0  0  0  0  0  0  0  0
  3  2  1  0
  4  3  2  0
  5  4  1  0
  6  5  2  0
  7  6  1  0
  8  7  2  0
  8  3  1  0
  8  1  1  0
  9  1  1  0
 10  9  2  0
 11  9  1  0
 12 11  2  0
 13 12  1  0
 14 13  2  0
 15 14  1  0
 16 15  2  0
 16 11  1  0
 17 16  1  0
 18  1  1  0
  1 19  1  1
  4 20  1  0
  5 21  1  0
  6 22  1  0
  7 23  1  0
 12 24  1  0
 13 25  1  0
 14 26  1  0
 15 27  1  0
 18 28  1  0
M  END
>  <score>  (1) 
-9.465

$$$$
=
     RDKit          3D

 28 29  0  0  0  0  0  0  0  0999 V2000
    3.5660   68.0850   64.8640 C   0  0  2  0  0  0  0  0  0  0  0  0
    0.8700   68.5460   65.5840 F   0  0  0  0  0  0  0  0  0  0  0  0
    1.1890   68.7070   64.2910 C   0  0  0  0  0  0  0  0  0  0  0  0
    0.1830   69.0670   63.3980 C   0  0  0  0  0  0  0  0  0  0  0  0
    0.4840   69.2350   62.0490 C   0  0  0  0  0  0  0  0  0  0  0  0
    1.7900   69.0400   61.6010 C   0  0  0  0  0  0  0  0  0  0  0  0
    2.7950   68.6760   62.5010 C   0  0  0  0  0  0  0  0  0  0  0  0
    2.5060   68.5070   63.8670 C   0  0  0  0  0  0  0  0  0  0  0  0
    4.4830   69.2440   65.3030 C   0  0  0  0  0  0  0  0  0  0  0  0
    5.2530   69.8340   64.5480 O   0  0  0  0  0  0  0  0  0  0  0  0
    4.3850   69.7000   66.7080 C   0  0  0  0  0  0  0  0  0  0  0  0
    3.1560   69.7200   67.3790 C   0  0  0  0  0  0  0  0  0  0  0  0
    3.0930   70.1730   68.7000 C   0  0  0  0  0  0  0  0  0  0  0  0
    4.2510   70.6080   69.3480 C   0  0  0  0  0  0  0  0  0  0  0  0
    5.4750   70.5850   68.6800 C   0  0  0  0  0  0  0  0  0  0  0  0
    5.5360   70.1330   67.3640 C   0  0  0  0  0  0  0  0  0  0  0  0
    6.7330   70.0880   66.7610 F   0  0  0  0  0  0  0  0  0  0  0  0
    4.3040   66.9940   64.3160 O   0  0  0  0  0  0  0  0  0  0  0  0
    3.0632   67.7613   65.7873 H   0  0  0  0  0  0  0  0  0  0  0  0
   -0.8457   69.2181   63.7570 H   0  0  0  0  0  0  0  0  0  0  0  0
   -0.3060   69.5207   61.3389 H   0  0  0  0  0  0  0  0  0  0  0  0
    2.0299   69.1731   60.5358 H   0  0  0  0  0  0  0  0  0  0  0  0
    3.8216   68.5202   62.1378 H   0  0  0  0  0  0  0  0  0  0  0  0
    2.2430   69.3803   66.8682 H   0  0  0  0  0  0  0  0  0  0  0  0
    2.1293   70.1868   69.2301 H   0  0  0  0  0  0  0  0  0  0  0  0
    4.1977   70.9689   70.3857 H   0  0  0  0  0  0  0  0  0  0  0  0
    6.3889   70.9226   69.1906 H   0  0  0  0  0  0  0  0  0  0  0  0
    4.6756   66.4447   65.0510 H   0  0  0  0  0  0  0  0  0  0  0  0
  3  2  1  0
  4  3  2  0
  5  4  1  0
  6  5  2  0
  7  6  1  0
  8  7  2  0
  8  3  1  0
  8  1  1  0
  9  1  1  0
 10  9  2  0
 11  9  1  0
 12 11  2  0
 13 12  1  0
 14 13  2  0
 15 14  1  0
 16 15  2  0
 16 11  1  0
 17 16  1  0
 18  1  1  0
  1 19  1  1
  4 20  1  0
  5 21  1  0
  6 22  1  0
  7 23  1  0
 12 24  1  0
 13 25  1  0
 14 26  1  0
 15 27  1  0
 18 28  1  0
M  END
>  <score>  (2) 
-9.403

$$$$
=
     RDKit          3D

 28 29  0  0  0  0  0  0  0  0999 V2000
    1.3540   67.7540   67.3320 C   0  0  2  0  0  0  0  0  0  0  0  0
   -0.6000   66.2950   68.7650 F   0  0  0  0  0  0  0  0  0  0  0  0
   -1.0400   67.1090   67.7940 C   0  0  0  0  0  0  0  0  0  0  0  0
   -2.4090   67.1680   67.5470 C   0  0  0  0  0  0  0  0  0  0  0  0
   -2.8950   67.9990   66.5410 C   0  0  0  0  0  0  0  0  0  0  0  0
   -2.0070   68.7670   65.7880 C   0  0  0  0  0  0  0  0  0  0  0  0
   -0.6340   68.7020   66.0380 C   0  0  0  0  0  0  0  0  0  0  0  0
   -0.1300   67.8690   67.0530 C   0  0  0  0  0  0  0  0  0  0  0  0
    2.0910   69.1050   67.2710 C   0  0  0  0  0  0  0  0  0  0  0  0
    1.8620   70.0480   68.0260 O   0  0  0  0  0  0  0  0  0  0  0  0
    3.1750   69.2510   66.2720 C   0  0  0  0  0  0  0  0  0  0  0  0
    2.9420   69.0110   64.9120 C   0  0  0  0  0  0  0  0  0  0  0  0
    3.9900   69.1380   63.9960 C   0  0  0  0  0  0  0  0  0  0  0  0
    5.2650   69.5020   64.4340 C   0  0  0  0  0  0  0  0  0  0  0  0
    5.4940   69.7440   65.7880 C   0  0  0  0  0  0  0  0  0  0  0  0
    4.4500   69.6160   66.7000 C   0  0  0  0  0  0  0  0  0  0  0  0
    4.6930   69.8920   67.9900 F   0  0  0  0  0  0  0  0  0  0  0  0
    1.9160   66.7940   66.4380 O   0  0  0  0  0  0  0  0  0  0  0  0
    1.4853   67.4119   68.3692 H   0  0  0  0  0  0  0  0  0  0  0  0
   -3.1043   66.5602   68.1446 H   0  0  0  0  0  0  0  0  0  0  0  0
   -3.9754   68.0496   66.3408 H   0  0  0  0  0  0  0  0  0  0  0  0
   -2.3890   69.4262   64.9945 H   0  0  0  0  0  0  0  0  0  0  0  0
    0.0590   69.3077   65.4356 H   0  0  0  0  0  0  0  0  0  0  0  0
    1.9381   68.7237   64.5661 H   0  0  0  0  0  0  0  0  0  0  0  0
    3.8099   68.9507   62.9271 H   0  0  0  0  0  0  0  0  0  0  0  0
    6.0885   69.5978   63.7111 H   0  0  0  0  0  0  0  0  0  0  0  0
    6.4966   70.0352   66.1345 H   0  0  0  0  0  0  0  0  0  0  0  0
    2.3414   66.0674   66.9588 H   0  0  0  0  0  0  0  0  0  0  0  0
  3  2  1  0
  4  3  2  0
  5  4  1  0
  6  5  2  0
  7  6  1  0
  8  7  2  0
  8  3  1  0
  8  1  1  0
  9  1  1  0
 10  9  2  0
 11  9  1  0
 12 11  2  0
 13 12  1  0
 14 13  2  0
 15 14  1  0
 16 15  2  0
 16 11  1  0
 17 16  1  0
 18  1  1  0
  1 19  1  1
  4 20  1  0
  5 21  1  0
  6 22  1  0
  7 23  1  0
 12 24  1  0
 13 25  1  0
 14 26  1  0
 15 27  1  0
 18 28  1  0
M  END
>  <score>  (3) 
-9.335

$$$$
=
     RDKit          3D

 28 29  0  0  0  0  0  0  0  0999 V2000
    2.3720   68.9940   65.3320 C   0  0  2  0  0  0  0  0  0  0  0  0
    1.9980   69.8700   67.9940 F   0  0  0  0  0  0  0  0  0  0  0  0
    3.2560   69.8630   67.5280 C   0  0  0  0  0  0  0  0  0  0  0  0
    4.2780   70.2980   68.3670 C   0  0  0  0  0  0  0  0  0  0  0  0
    5.5930   70.3080   67.9090 C   0  0  0  0  0  0  0  0  0  0  0  0
    5.8760   69.8820   66.6110 C   0  0  0  0  0  0  0  0  0  0  0  0
    4.8460   69.4480   65.7720 C   0  0  0  0  0  0  0  0  0  0  0  0
    3.5150   69.4310   66.2240 C   0  0  0  0  0  0  0  0  0  0  0  0
    1.6990   67.6880   65.8000 C   0  0  0  0  0  0  0  0  0  0  0  0
    2.2650   66.5980   65.8340 O   0  0  0  0  0  0  0  0  0  0  0  0
    0.3020   67.7720   66.2850 C   0  0  0  0  0  0  0  0  0  0  0  0
   -0.0970   67.1170   67.4560 C   0  0  0  0  0  0  0  0  0  0  0  0
   -1.4270   67.2000   67.8790 C   0  0  0  0  0  0  0  0  0  0  0  0
   -2.3550   67.9320   67.1350 C   0  0  0  0  0  0  0  0  0  0  0  0
   -1.9540   68.5870   65.9710 C   0  0  0  0  0  0  0  0  0  0  0  0
   -0.6290   68.5030   65.5500 C   0  0  0  0  0  0  0  0  0  0  0  0
   -0.2670   69.1740   64.4470 F   0  0  0  0  0  0  0  0  0  0  0  0
    2.8460   68.9020   63.9890 O   0  0  0  0  0  0  0  0  0  0  0  0
    1.5787   69.7537   65.3911 H   0  0  0  0  0  0  0  0  0  0  0  0
    4.0475   70.6330   69.3891 H   0  0  0  0  0  0  0  0  0  0  0  0
    6.4049   70.6502   68.5676 H   0  0  0  0  0  0  0  0  0  0  0  0
    6.9138   69.8877   66.2465 H   0  0  0  0  0  0  0  0  0  0  0  0
    5.0788   69.1169   64.7492 H   0  0  0  0  0  0  0  0  0  0  0  0
    0.6333   66.5390   68.0413 H   0  0  0  0  0  0  0  0  0  0  0  0
   -1.7431   66.6877   68.7997 H   0  0  0  0  0  0  0  0  0  0  0  0
   -3.4020   67.9919   67.4671 H   0  0  0  0  0  0  0  0  0  0  0  0
   -2.6823   69.1686   65.3868 H   0  0  0  0  0  0  0  0  0  0  0  0
    3.8178   68.7134   63.9943 H   0  0  0  0  0  0  0  0  0  0  0  0
  3  2  1  0
  4  3  2  0
  5  4  1  0
  6  5  2  0
  7  6  1  0
  8  7  2  0
  8  3  1  0
  8  1  1  0
  9  1  1  0
 10  9  2  0
 11  9  1  0
 12 11  2  0
 13 12  1  0
 14 13  2  0
 15 14  1  0
 16 15  2  0
 16 11  1  0
 17 16  1  0
 18  1  1  0
  1 19  1  6
  4 20  1  0
  5 21  1  0
  6 22  1  0
  7 23  1  0
 12 24  1  0
 13 25  1  0
 14 26  1  0
 15 27  1  0
 18 28  1  0
M  END
>  <score>  (4) 
-9.234

$$$$
=
     RDKit          3D

 28 29  0  0  0  0  0  0  0  0999 V2000
    4.6470   69.1570   65.0250 C   0  0  2  0  0  0  0  0  0  0  0  0
    6.6370   70.3940   66.6090 F   0  0  0  0  0  0  0  0  0  0  0  0
    5.4300   70.2280   67.1700 C   0  0  0  0  0  0  0  0  0  0  0  0
    5.2440   70.6530   68.4830 C   0  0  0  0  0  0  0  0  0  0  0  0
    4.0030   70.4890   69.0940 C   0  0  0  0  0  0  0  0  0  0  0  0
    2.9560   69.8980   68.3860 C   0  0  0  0  0  0  0  0  0  0  0  0
    3.1490   69.4710   67.0700 C   0  0  0  0  0  0  0  0  0  0  0  0
    4.3950   69.6340   66.4400 C   0  0  0  0  0  0  0  0  0  0  0  0
    3.6350   68.0950   64.5520 C   0  0  0  0  0  0  0  0  0  0  0  0
    3.6610   66.9170   64.9030 O   0  0  0  0  0  0  0  0  0  0  0  0
    2.5390   68.5410   63.6620 C   0  0  0  0  0  0  0  0  0  0  0  0
    1.2490   68.7670   64.1600 C   0  0  0  0  0  0  0  0  0  0  0  0
    0.2310   69.1700   63.2910 C   0  0  0  0  0  0  0  0  0  0  0  0
    0.4970   69.3450   61.9310 C   0  0  0  0  0  0  0  0  0  0  0  0
    1.7820   69.1230   61.4380 C   0  0  0  0  0  0  0  0  0  0  0  0
    2.7960   68.7220   62.3040 C   0  0  0  0  0  0  0  0  0  0  0  0
    4.0300   68.5520   61.8070 F   0  0  0  0  0  0  0  0  0  0  0  0
    5.9940   68.6960   64.9280 O   0  0  0  0  0  0  0  0  0  0  0  0
    4.4995   70.0071   64.3426 H   0  0  0  0  0  0  0  0  0  0  0  0
    6.0743   71.1167   69.0358 H   0  0  0  0  0  0  0  0  0  0  0  0
    3.8491   70.8240   70.1304 H   0  0  0  0  0  0  0  0  0  0  0  0
    1.9748   69.7678   68.8659 H   0  0  0  0  0  0  0  0  0  0  0  0
    2.3182   69.0029   66.5216 H   0  0  0  0  0  0  0  0  0  0  0  0
    1.0382   68.6278   65.2306 H   0  0  0  0  0  0  0  0  0  0  0  0
   -0.7824   69.3498   63.6793 H   0  0  0  0  0  0  0  0  0  0  0  0
   -0.3073   69.6580   61.2490 H   0  0  0  0  0  0  0  0  0  0  0  0
    1.9943   69.2642   60.3680 H   0  0  0  0  0  0  0  0  0  0  0  0
    6.3655   68.5688   65.8368 H   0  0  0  0  0  0  0  0  0  0  0  0
  3  2  1  0
  4  3  2  0
  5  4  1  0
  6  5  2  0
  7  6  1  0
  8  7  2  0
  8  3  1  0
  8  1  1  0
  9  1  1  0
 10  9  2  0
 11  9  1  0
 12 11  2  0
 13 12  1  0
 14 13  2  0
 15 14  1  0
 16 15  2  0
 16 11  1  0
 17 16  1  0
 18  1  1  0
  1 19  1  6
  4 20  1  0
  5 21  1  0
  6 22  1  0
  7 23  1  0
 12 24  1  0
 13 25  1  0
 14 26  1  0
 15 27  1  0
 18 28  1  0
M  END
>  <score>  (5) 
-9.099

$$$$
=
     RDKit          3D

 28 29  0  0  0  0  0  0  0  0999 V2000
    2.0930   67.5100   66.1950 C   0  0  2  0  0  0  0  0  0  0  0  0
    0.4540   66.8490   68.4030 F   0  0  0  0  0  0  0  0  0  0  0  0
   -0.1310   67.4970   67.3850 C   0  0  0  0  0  0  0  0  0  0  0  0
   -1.4920   67.7810   67.4720 C   0  0  0  0  0  0  0  0  0  0  0  0
   -2.1280   68.4460   66.4270 C   0  0  0  0  0  0  0  0  0  0  0  0
   -1.3980   68.8230   65.3000 C   0  0  0  0  0  0  0  0  0  0  0  0
   -0.0330   68.5330   65.2160 C   0  0  0  0  0  0  0  0  0  0  0  0
    0.6220   67.8650   66.2660 C   0  0  0  0  0  0  0  0  0  0  0  0
    2.9870   68.7010   65.8000 C   0  0  0  0  0  0  0  0  0  0  0  0
    3.1260   69.1040   64.6470 O   0  0  0  0  0  0  0  0  0  0  0  0
    3.6770   69.4310   66.8890 C   0  0  0  0  0  0  0  0  0  0  0  0
    2.9880   69.8350   68.0390 C   0  0  0  0  0  0  0  0  0  0  0  0
    3.6620   70.5390   69.0410 C   0  0  0  0  0  0  0  0  0  0  0  0
    5.0180   70.8400   68.8960 C   0  0  0  0  0  0  0  0  0  0  0  0
    5.7040   70.4330   67.7520 C   0  0  0  0  0  0  0  0  0  0  0  0
    5.0310   69.7330   66.7540 C   0  0  0  0  0  0  0  0  0  0  0  0
    5.7260   69.3240   65.6820 F   0  0  0  0  0  0  0  0  0  0  0  0
    2.2560   66.4000   65.3130 O   0  0  0  0  0  0  0  0  0  0  0  0
    2.4302   67.2301   67.2040 H   0  0  0  0  0  0  0  0  0  0  0  0
   -2.0624   67.4809   68.3634 H   0  0  0  0  0  0  0  0  0  0  0  0
   -3.2024   68.6732   66.4901 H   0  0  0  0  0  0  0  0  0  0  0  0
   -1.8981   69.3504   64.4743 H   0  0  0  0  0  0  0  0  0  0  0  0
    0.5335   68.8298   64.3210 H   0  0  0  0  0  0  0  0  0  0  0  0
    1.9197   69.5991   68.1536 H   0  0  0  0  0  0  0  0  0  0  0  0
    3.1231   70.8567   69.9458 H   0  0  0  0  0  0  0  0  0  0  0  0
    5.5449   71.3980   69.6840 H   0  0  0  0  0  0  0  0  0  0  0  0
    6.7734   70.6642   67.6384 H   0  0  0  0  0  0  0  0  0  0  0  0
    2.3775   65.5726   65.8428 H   0  0  0  0  0  0  0  0  0  0  0  0
  3  2  1  0
  4  3  2  0
  5  4  1  0
  6  5  2  0
  7  6  1  0
  8  7  2  0
  8  3  1  0
  8  1  1  0
  9  1  1  0
 10  9  2  0
 11  9  1  0
 12 11  2  0
 13 12  1  0
 14 13  2  0
 15 14  1  0
 16 15  2  0
 16 11  1  0
 17 16  1  0
 18  1  1  0
  1 19  1  1
  4 20  1  0
  5 21  1  0
  6 22  1  0
  7 23  1  0
 12 24  1  0
 13 25  1  0
 14 26  1  0
 15 27  1  0
 18 28  1  0
M  END
>  <score>  (6) 
-8.987

$$$$
=
     RDKit          3D

 28 29  0  0  0  0  0  0  0  0999 V2000
    1.2030   68.8180   66.9830 C   0  0  2  0  0  0  0  0  0  0  0  0
    0.0560   66.7900   68.5870 F   0  0  0  0  0  0  0  0  0  0  0  0
   -0.7630   67.4300   67.7390 C   0  0  0  0  0  0  0  0  0  0  0  0
   -2.1010   67.0460   67.6910 C   0  0  0  0  0  0  0  0  0  0  0  0
   -2.9730   67.6880   66.8160 C   0  0  0  0  0  0  0  0  0  0  0  0
   -2.5010   68.7100   65.9930 C   0  0  0  0  0  0  0  0  0  0  0  0
   -1.1570   69.0890   66.0420 C   0  0  0  0  0  0  0  0  0  0  0  0
   -0.2660   68.4510   66.9240 C   0  0  0  0  0  0  0  0  0  0  0  0
    2.1000   67.8670   66.1680 C   0  0  0  0  0  0  0  0  0  0  0  0
    1.9320   66.6510   66.1020 O   0  0  0  0  0  0  0  0  0  0  0  0
    3.1990   68.4700   65.3780 C   0  0  0  0  0  0  0  0  0  0  0  0
    4.2330   69.1780   66.0010 C   0  0  0  0  0  0  0  0  0  0  0  0
    5.2460   69.7510   65.2270 C   0  0  0  0  0  0  0  0  0  0  0  0
    5.2270   69.6200   63.8370 C   0  0  0  0  0  0  0  0  0  0  0  0
    4.1980   68.9110   63.2190 C   0  0  0  0  0  0  0  0  0  0  0  0
    3.1890   68.3400   63.9910 C   0  0  0  0  0  0  0  0  0  0  0  0
    2.2330   67.6340   63.3690 F   0  0  0  0  0  0  0  0  0  0  0  0
    1.6020   68.8930   68.3510 O   0  0  0  0  0  0  0  0  0  0  0  0
    1.3340   69.8010   66.5071 H   0  0  0  0  0  0  0  0  0  0  0  0
   -2.4673   66.2385   68.3420 H   0  0  0  0  0  0  0  0  0  0  0  0
   -4.0310   67.3900   66.7740 H   0  0  0  0  0  0  0  0  0  0  0  0
   -3.1893   69.2197   65.3027 H   0  0  0  0  0  0  0  0  0  0  0  0
   -0.7927   69.8929   65.3855 H   0  0  0  0  0  0  0  0  0  0  0  0
    4.2484   69.2832   67.0959 H   0  0  0  0  0  0  0  0  0  0  0  0
    6.0606   70.3068   65.7143 H   0  0  0  0  0  0  0  0  0  0  0  0
    6.0232   70.0758   63.2302 H   0  0  0  0  0  0  0  0  0  0  0  0
    4.1829   68.8028   62.1244 H   0  0  0  0  0  0  0  0  0  0  0  0
    0.8149   68.7450   68.9329 H   0  0  0  0  0  0  0  0  0  0  0  0
  3  2  1  0
  4  3  2  0
  5  4  1  0
  6  5  2  0
  7  6  1  0
  8  7  2  0
  8  3  1  0
  8  1  1  0
  9  1  1  0
 10  9  2  0
 11  9  1  0
 12 11  2  0
 13 12  1  0
 14 13  2  0
 15 14  1  0
 16 15  2  0
 16 11  1  0
 17 16  1  0
 18  1  1  0
  1 19  1  6
  4 20  1  0
  5 21  1  0
  6 22  1  0
  7 23  1  0
 12 24  1  0
 13 25  1  0
 14 26  1  0
 15 27  1  0
 18 28  1  0
M  END
>  <score>  (7) 
-8.633

$$$$
=
     RDKit          3D

 28 29  0  0  0  0  0  0  0  0999 V2000
    1.7660   67.0590   64.9330 C   0  0  2  0  0  0  0  0  0  0  0  0
    3.3400   67.1820   62.5870 F   0  0  0  0  0  0  0  0  0  0  0  0
    3.5800   66.1650   63.4270 C   0  0  0  0  0  0  0  0  0  0  0  0
    4.5630   65.2390   63.0850 C   0  0  0  0  0  0  0  0  0  0  0  0
    4.8310   64.1680   63.9340 C   0  0  0  0  0  0  0  0  0  0  0  0
    4.1120   64.0310   65.1220 C   0  0  0  0  0  0  0  0  0  0  0  0
    3.1250   64.9610   65.4590 C   0  0  0  0  0  0  0  0  0  0  0  0
    2.8480   66.0480   64.6120 C   0  0  0  0  0  0  0  0  0  0  0  0
    2.2200   68.5180   64.7380 C   0  0  0  0  0  0  0  0  0  0  0  0
    1.8070   69.2520   63.8420 O   0  0  0  0  0  0  0  0  0  0  0  0
    3.1730   69.0780   65.7240 C   0  0  0  0  0  0  0  0  0  0  0  0
    2.7730   69.3600   67.0360 C   0  0  0  0  0  0  0  0  0  0  0  0
    3.6910   69.9040   67.9390 C   0  0  0  0  0  0  0  0  0  0  0  0
    5.0010   70.1690   67.5350 C   0  0  0  0  0  0  0  0  0  0  0  0
    5.3980   69.8840   66.2280 C   0  0  0  0  0  0  0  0  0  0  0  0
    4.4830   69.3420   65.3300 C   0  0  0  0  0  0  0  0  0  0  0  0
    4.9040   69.0450   64.0910 F   0  0  0  0  0  0  0  0  0  0  0  0
    1.2900   66.8160   66.2570 O   0  0  0  0  0  0  0  0  0  0  0  0
    0.9430   66.9253   64.2155 H   0  0  0  0  0  0  0  0  0  0  0  0
    5.1260   65.3534   62.1469 H   0  0  0  0  0  0  0  0  0  0  0  0
    5.6059   63.4335   63.6693 H   0  0  0  0  0  0  0  0  0  0  0  0
    4.3230   63.1876   65.7959 H   0  0  0  0  0  0  0  0  0  0  0  0
    2.5600   64.8414   66.3952 H   0  0  0  0  0  0  0  0  0  0  0  0
    1.7405   69.1543   67.3548 H   0  0  0  0  0  0  0  0  0  0  0  0
    3.3804   70.1240   68.9710 H   0  0  0  0  0  0  0  0  0  0  0  0
    5.7195   70.6021   68.2465 H   0  0  0  0  0  0  0  0  0  0  0  0
    6.4308   70.0870   65.9084 H   0  0  0  0  0  0  0  0  0  0  0  0
    1.9509   67.1534   66.9124 H   0  0  0  0  0  0  0  0  0  0  0  0
  3  2  1  0
  4  3  2  0
  5  4  1  0
  6  5  2  0
  7  6  1  0
  8  7  2  0
  8  3  1  0
  8  1  1  0
  9  1  1  0
 10  9  2  0
 11  9  1  0
 12 11  2  0
 13 12  1  0
 14 13  2  0
 15 14  1  0
 16 15  2  0
 16 11  1  0
 17 16  1  0
 18  1  1  0
  1 19  1  6
  4 20  1  0
  5 21  1  0
  6 22  1  0
  7 23  1  0
 12 24  1  0
 13 25  1  0
 14 26  1  0
 15 27  1  0
 18 28  1  0
M  END
>  <score>  (8) 
-8.596

$$$$
=
     RDKit          3D

 28 29  0  0  0  0  0  0  0  0999 V2000
    1.5390   68.7030   66.4130 C   0  0  2  0  0  0  0  0  0  0  0  0
   -0.8900   69.2180   65.0600 F   0  0  0  0  0  0  0  0  0  0  0  0
   -0.9540   68.4290   66.1430 C   0  0  0  0  0  0  0  0  0  0  0  0
   -2.1960   67.9380   66.5350 C   0  0  0  0  0  0  0  0  0  0  0  0
   -2.2940   67.1210   67.6600 C   0  0  0  0  0  0  0  0  0  0  0  0
   -1.1460   66.8030   68.3850 C   0  0  0  0  0  0  0  0  0  0  0  0
    0.0980   67.3010   67.9890 C   0  0  0  0  0  0  0  0  0  0  0  0
    0.2110   68.1230   66.8540 C   0  0  0  0  0  0  0  0  0  0  0  0
    2.3970   67.7100   65.6050 C   0  0  0  0  0  0  0  0  0  0  0  0
    2.3840   66.4930   65.7760 O   0  0  0  0  0  0  0  0  0  0  0  0
    3.2480   68.2610   64.5250 C   0  0  0  0  0  0  0  0  0  0  0  0
    2.8820   68.1320   63.1790 C   0  0  0  0  0  0  0  0  0  0  0  0
    3.7150   68.6460   62.1810 C   0  0  0  0  0  0  0  0  0  0  0  0
    4.9090   69.2850   62.5240 C   0  0  0  0  0  0  0  0  0  0  0  0
    5.2690   69.4160   63.8640 C   0  0  0  0  0  0  0  0  0  0  0  0
    4.4390   68.9030   64.8580 C   0  0  0  0  0  0  0  0  0  0  0  0
    4.7950   69.0780   66.1390 F   0  0  0  0  0  0  0  0  0  0  0  0
    2.2270   69.1980   67.5610 O   0  0  0  0  0  0  0  0  0  0  0  0
    1.3415   69.5317   65.7171 H   0  0  0  0  0  0  0  0  0  0  0  0
   -3.0974   68.1939   65.9588 H   0  0  0  0  0  0  0  0  0  0  0  0
   -3.2724   66.7289   67.9745 H   0  0  0  0  0  0  0  0  0  0  0  0
   -1.2201   66.1573   69.2725 H   0  0  0  0  0  0  0  0  0  0  0  0
    0.9968   67.0477   68.5704 H   0  0  0  0  0  0  0  0  0  0  0  0
    1.9424   67.6280   62.9083 H   0  0  0  0  0  0  0  0  0  0  0  0
    3.4297   68.5471   61.1233 H   0  0  0  0  0  0  0  0  0  0  0  0
    5.5649   69.6847   61.7366 H   0  0  0  0  0  0  0  0  0  0  0  0
    6.2064   69.9233   64.1360 H   0  0  0  0  0  0  0  0  0  0  0  0
    1.7766   68.8739   68.3809 H   0  0  0  0  0  0  0  0  0  0  0  0
  3  2  1  0
  4  3  2  0
  5  4  1  0
  6  5  2  0
  7  6  1  0
  8  7  2  0
  8  3  1  0
  8  1  1  0
  9  1  1  0
 10  9  2  0
 11  9  1  0
 12 11  2  0
 13 12  1  0
 14 13  2  0
 15 14  1  0
 16 15  2  0
 16 11  1  0
 17 16  1  0
 18  1  1  0
  1 19  1  6
  4 20  1  0
  5 21  1  0
  6 22  1  0
  7 23  1  0
 12 24  1  0
 13 25  1  0
 14 26  1  0
 15 27  1  0
 18 28  1  0
M  END
>  <score>  (9) 
-8.546

$$$$
