=
     RDKit          3D

 28 29  0  0  0  0  0  0  0  0999 V2000
    0.1080   67.9530   66.5440 C   0  0  1  0  0  0  0  0  0  0  0  0
    0.8400   68.3440   67.7520 N   0  0  0  0  0  0  0  0  0  0  0  0
    2.0600   69.0150   67.6100 C   0  0  0  0  0  0  0  0  0  0  0  0
    2.6160   69.6490   68.7310 C   0  0  0  0  0  0  0  0  0  0  0  0
    3.8770   70.2690   68.6840 C   0  0  0  0  0  0  0  0  0  0  0  0
    4.4350   70.9930   70.1470 Cl  0  0  0  0  0  0  0  0  0  0  0  0
    4.6170   70.2340   67.5010 C   0  0  0  0  0  0  0  0  0  0  0  0
    4.1030   69.5710   66.3810 C   0  0  0  0  0  0  0  0  0  0  0  0
    2.8430   68.9660   66.4560 C   0  0  0  0  0  0  0  0  0  0  0  0
    2.2400   68.0890   65.0540 S   0  0  0  0  0  6  0  0  0  0  0  0
    3.2660   67.1630   64.6360 O   0  0  0  0  0  0  0  0  0  0  0  0
    1.6510   69.0650   64.1670 O   0  0  0  0  0  0  0  0  0  0  0  0
    1.0160   67.1790   65.7170 N   0  0  0  0  0  0  0  0  0  0  0  0
   -1.1210   66.4820   68.5560 Cl  0  0  0  0  0  0  0  0  0  0  0  0
   -1.1780   67.1360   66.8950 C   0  0  0  0  0  0  0  0  0  0  0  0
   -2.6730   68.1040   66.6930 Cl  0  0  0  0  0  0  0  0  0  0  0  0
    6.1900   71.0350   67.3580 S   0  0  0  0  0  6  0  0  0  0  0  0
    6.0100   72.4300   67.6880 O   0  0  0  0  0  0  0  0  0  0  0  0
    7.1750   70.2160   68.0200 O   0  0  0  0  0  0  0  0  0  0  0  0
    6.5200   70.9710   65.7100 N   0  0  0  0  0  0  0  0  0  0  0  0
   -0.2345   68.8465   66.0014 H   0  0  0  0  0  0  0  0  0  0  0  0
    0.4642   68.1293   68.6866 H   0  0  0  0  0  0  0  0  0  0  0  0
    2.0493   69.6614   69.6737 H   0  0  0  0  0  0  0  0  0  0  0  0
    4.6848   69.5256   65.4486 H   0  0  0  0  0  0  0  0  0  0  0  0
    0.4761   66.7502   64.9518 H   0  0  0  0  0  0  0  0  0  0  0  0
   -1.2025   66.2986   66.1822 H   0  0  0  0  0  0  0  0  0  0  0  0
    7.5215   70.7768   65.5677 H   0  0  0  0  0  0  0  0  0  0  0  0
    5.9602   70.2229   65.2766 H   0  0  0  0  0  0  0  0  0  0  0  0
  2  1  1  0
  3  2  1  0
  4  3  2  0
  5  4  1  0
  6  5  1  0
  7  5  2  0
  8  7  1  0
  9  8  2  0
  9  3  1  0
 10  9  1  0
 11 10  2  0
 12 10  2  0
 13 10  1  0
 13  1  1  0
 15 14  1  0
 15  1  1  0
 16 15  1  0
 17  7  1  0
 18 17  2  0
 19 17  2  0
 20 17  1  0
  1 21  1  6
  2 22  1  0
  4 23  1  0
  8 24  1  0
 13 25  1  0
 15 26  1  0
 20 27  1  0
 20 28  1  0
M  END
>  <score>  (1) 
-8.716

$$$$
=
     RDKit          3D

 28 29  0  0  0  0  0  0  0  0999 V2000
   -0.6770   68.2330   66.3720 C   0  0  1  0  0  0  0  0  0  0  0  0
   -0.3550   68.6530   65.0060 N   0  0  0  0  0  0  0  0  0  0  0  0
    0.9690   68.5430   64.5640 C   0  0  0  0  0  0  0  0  0  0  0  0
    1.2320   68.6570   63.1910 C   0  0  0  0  0  0  0  0  0  0  0  0
    2.5440   68.6420   62.6840 C   0  0  0  0  0  0  0  0  0  0  0  0
    2.7110   68.8080   60.9740 Cl  0  0  0  0  0  0  0  0  0  0  0  0
    3.6210   68.5380   63.5650 C   0  0  0  0  0  0  0  0  0  0  0  0
    3.3860   68.4660   64.9430 C   0  0  0  0  0  0  0  0  0  0  0  0
    2.0690   68.4800   65.4190 C   0  0  0  0  0  0  0  0  0  0  0  0
    1.7980   68.4450   67.1570 S   0  0  0  0  0  6  0  0  0  0  0  0
    2.6040   69.4850   67.7530 O   0  0  0  0  0  0  0  0  0  0  0  0
    1.8670   67.0630   67.5680 O   0  0  0  0  0  0  0  0  0  0  0  0
    0.2160   68.9460   67.2680 N   0  0  0  0  0  0  0  0  0  0  0  0
   -3.1260   68.9430   65.2690 Cl  0  0  0  0  0  0  0  0  0  0  0  0
   -2.1760   68.5140   66.7190 C   0  0  0  0  0  0  0  0  0  0  0  0
   -2.9520   67.1270   67.5460 Cl  0  0  0  0  0  0  0  0  0  0  0  0
    5.2950   68.4650   62.9910 S   0  0  0  0  0  6  0  0  0  0  0  0
    5.5000   67.1700   62.3850 O   0  0  0  0  0  0  0  0  0  0  0  0
    5.5850   69.6900   62.2880 O   0  0  0  0  0  0  0  0  0  0  0  0
    6.2020   68.4800   64.4080 N   0  0  0  0  0  0  0  0  0  0  0  0
   -0.5368   67.1471   66.4781 H   0  0  0  0  0  0  0  0  0  0  0  0
   -1.0878   69.0218   64.3832 H   0  0  0  0  0  0  0  0  0  0  0  0
    0.3893   68.7610   62.4917 H   0  0  0  0  0  0  0  0  0  0  0  0
    4.2290   68.3990   65.6464 H   0  0  0  0  0  0  0  0  0  0  0  0
   -0.1061   68.7995   68.2353 H   0  0  0  0  0  0  0  0  0  0  0  0
   -2.1679   69.3721   67.4071 H   0  0  0  0  0  0  0  0  0  0  0  0
    5.5693   68.4695   65.2207 H   0  0  0  0  0  0  0  0  0  0  0  0
    6.8099   67.6489   64.4354 H   0  0  0  0  0  0  0  0  0  0  0  0
  2  1  1  0
  3  2  1  0
  4  3  2  0
  5  4  1  0
  6  5  1  0
  7  5  2  0
  8  7  1  0
  9  8  2  0
  9  3  1  0
 10  9  1  0
 11 10  2  0
 12 10  2  0
 13 10  1  0
 13  1  1  0
 15 14  1  0
 15  1  1  0
 16 15  1  0
 17  7  1  0
 18 17  2  0
 19 17  2  0
 20 17  1  0
  1 21  1  6
  2 22  1  0
  4 23  1  0
  8 24  1  0
 13 25  1  0
 15 26  1  0
 20 27  1  0
 20 28  1  0
M  END
>  <score>  (2) 
-8.206

$$$$
=
     RDKit          3D

 28 29  0  0  0  0  0  0  0  0999 V2000
    2.7680   61.8220   71.3850 C   0  0  1  0  0  0  0  0  0  0  0  0
    1.4900   61.3230   71.9020 N   0  0  0  0  0  0  0  0  0  0  0  0
    1.4510   60.0500   72.4800 C   0  0  0  0  0  0  0  0  0  0  0  0
    0.3250   59.6860   73.2340 C   0  0  0  0  0  0  0  0  0  0  0  0
    0.1780   58.3960   73.7730 C   0  0  0  0  0  0  0  0  0  0  0  0
   -1.2690   58.0930   74.6640 Cl  0  0  0  0  0  0  0  0  0  0  0  0
    1.1610   57.4340   73.5340 C   0  0  0  0  0  0  0  0  0  0  0  0
    2.2730   57.7600   72.7490 C   0  0  0  0  0  0  0  0  0  0  0  0
    2.3940   59.0540   72.2290 C   0  0  0  0  0  0  0  0  0  0  0  0
    3.7720   59.4250   71.1980 S   0  0  0  0  0  6  0  0  0  0  0  0
    3.8410   58.4140   70.1690 O   0  0  0  0  0  0  0  0  0  0  0  0
    4.8790   59.7380   72.0700 O   0  0  0  0  0  0  0  0  0  0  0  0
    3.2780   60.8290   70.4560 N   0  0  0  0  0  0  0  0  0  0  0  0
    3.4470   63.2850   69.1230 Cl  0  0  0  0  0  0  0  0  0  0  0  0
    2.6010   63.2150   70.6950 C   0  0  0  0  0  0  0  0  0  0  0  0
    0.8800   63.6530   70.4590 Cl  0  0  0  0  0  0  0  0  0  0  0  0
    1.0620   55.8050   74.2220 S   0  0  0  0  0  6  0  0  0  0  0  0
    1.2140   55.9180   75.6540 O   0  0  0  0  0  0  0  0  0  0  0  0
   -0.0650   55.1310   73.6260 O   0  0  0  0  0  0  0  0  0  0  0  0
    2.4510   55.0480   73.6510 N   0  0  0  0  0  0  0  0  0  0  0  0
    3.4791   61.9729   72.2106 H   0  0  0  0  0  0  0  0  0  0  0  0
    0.6379   61.8984   71.8408 H   0  0  0  0  0  0  0  0  0  0  0  0
   -0.4651   60.4312   73.4083 H   0  0  0  0  0  0  0  0  0  0  0  0
    3.0459   57.0051   72.5423 H   0  0  0  0  0  0  0  0  0  0  0  0
    4.0813   61.2334   69.9539 H   0  0  0  0  0  0  0  0  0  0  0  0
    3.0578   63.9444   71.3800 H   0  0  0  0  0  0  0  0  0  0  0  0
    3.0241   54.7357   74.4478 H   0  0  0  0  0  0  0  0  0  0  0  0
    2.1874   54.2339   73.0777 H   0  0  0  0  0  0  0  0  0  0  0  0
  2  1  1  0
  3  2  1  0
  4  3  2  0
  5  4  1  0
  6  5  1  0
  7  5  2  0
  8  7  1  0
  9  8  2  0
  9  3  1  0
 10  9  1  0
 11 10  2  0
 12 10  2  0
 13 10  1  0
 13  1  1  0
 15 14  1  0
 15  1  1  0
 16 15  1  0
 17  7  1  0
 18 17  2  0
 19 17  2  0
 20 17  1  0
  1 21  1  1
  2 22  1  0
  4 23  1  0
  8 24  1  0
 13 25  1  0
 15 26  1  0
 20 27  1  0
 20 28  1  0
M  END
>  <score>  (3) 
-7.203

$$$$
=
     RDKit          3D

 28 29  0  0  0  0  0  0  0  0999 V2000
    1.8010   68.6350   64.3780 C   0  0  1  0  0  0  0  0  0  0  0  0
    1.8250   68.9190   65.8150 N   0  0  0  0  0  0  0  0  0  0  0  0
    3.0000   69.4280   66.3800 C   0  0  0  0  0  0  0  0  0  0  0  0
    2.9460   69.9750   67.6700 C   0  0  0  0  0  0  0  0  0  0  0  0
    4.1010   70.4270   68.3340 C   0  0  0  0  0  0  0  0  0  0  0  0
    3.8780   71.0620   69.9230 Cl  0  0  0  0  0  0  0  0  0  0  0  0
    5.3440   70.3060   67.7110 C   0  0  0  0  0  0  0  0  0  0  0  0
    5.4300   69.7240   66.4410 C   0  0  0  0  0  0  0  0  0  0  0  0
    4.2620   69.2870   65.8030 C   0  0  0  0  0  0  0  0  0  0  0  0
    4.4000   68.5070   64.2310 S   0  0  0  0  0  6  0  0  0  0  0  0
    5.3870   67.4590   64.3410 O   0  0  0  0  0  0  0  0  0  0  0  0
    4.4720   69.5570   63.2440 O   0  0  0  0  0  0  0  0  0  0  0  0
    2.9210   67.7570   64.0900 N   0  0  0  0  0  0  0  0  0  0  0  0
   -0.8890   68.4390   65.0430 Cl  0  0  0  0  0  0  0  0  0  0  0  0
    0.4450   67.9880   63.9450 C   0  0  0  0  0  0  0  0  0  0  0  0
   -0.0040   68.4170   62.2630 Cl  0  0  0  0  0  0  0  0  0  0  0  0
    6.8310   70.8980   68.4680 S   0  0  0  0  0  6  0  0  0  0  0  0
    7.9420   70.1770   67.8910 O   0  0  0  0  0  0  0  0  0  0  0  0
    6.7850   72.3400   68.4860 O   0  0  0  0  0  0  0  0  0  0  0  0
    6.6990   70.3790   70.0620 N   0  0  0  0  0  0  0  0  0  0  0  0
    1.8911   69.5696   63.8049 H   0  0  0  0  0  0  0  0  0  0  0  0
    0.9935   68.7475   66.3981 H   0  0  0  0  0  0  0  0  0  0  0  0
    1.9730   70.0529   68.1772 H   0  0  0  0  0  0  0  0  0  0  0  0
    6.4068   69.6107   65.9479 H   0  0  0  0  0  0  0  0  0  0  0  0
    2.8226   67.4072   63.1262 H   0  0  0  0  0  0  0  0  0  0  0  0
    0.6014   66.9006   64.0006 H   0  0  0  0  0  0  0  0  0  0  0  0
    6.8989   71.1652   70.6967 H   0  0  0  0  0  0  0  0  0  0  0  0
    5.7436   70.0343   70.2328 H   0  0  0  0  0  0  0  0  0  0  0  0
  2  1  1  0
  3  2  1  0
  4  3  2  0
  5  4  1  0
  6  5  1  0
  7  5  2  0
  8  7  1  0
  9  8  2  0
  9  3  1  0
 10  9  1  0
 11 10  2  0
 12 10  2  0
 13 10  1  0
 13  1  1  0
 15 14  1  0
 15  1  1  0
 16 15  1  0
 17  7  1  0
 18 17  2  0
 19 17  2  0
 20 17  1  0
  1 21  1  6
  2 22  1  0
  4 23  1  0
  8 24  1  0
 13 25  1  0
 15 26  1  0
 20 27  1  0
 20 28  1  0
M  END
>  <score>  (4) 
-6.423

$$$$
=
     RDKit          3D

 28 29  0  0  0  0  0  0  0  0999 V2000
    2.4380   62.6840   70.5740 C   0  0  1  0  0  0  0  0  0  0  0  0
    2.9070   61.3800   71.0510 N   0  0  0  0  0  0  0  0  0  0  0  0
    2.0490   60.6050   71.8380 C   0  0  0  0  0  0  0  0  0  0  0  0
    2.3630   59.2540   72.0480 C   0  0  0  0  0  0  0  0  0  0  0  0
    1.5940   58.4360   72.8960 C   0  0  0  0  0  0  0  0  0  0  0  0
    2.1130   56.7990   73.0670 Cl  0  0  0  0  0  0  0  0  0  0  0  0
    0.5020   58.9820   73.5730 C   0  0  0  0  0  0  0  0  0  0  0  0
    0.1940   60.3370   73.4140 C   0  0  0  0  0  0  0  0  0  0  0  0
    0.9750   61.1260   72.5600 C   0  0  0  0  0  0  0  0  0  0  0  0
    0.6040   62.8400   72.4180 S   0  0  0  0  0  6  0  0  0  0  0  0
    0.5280   63.3900   73.7510 O   0  0  0  0  0  0  0  0  0  0  0  0
   -0.4630   62.9630   71.4540 O   0  0  0  0  0  0  0  0  0  0  0  0
    1.9980   63.4380   71.7340 N   0  0  0  0  0  0  0  0  0  0  0  0
    5.1280   63.3780   70.6450 Cl  0  0  0  0  0  0  0  0  0  0  0  0
    3.5590   63.4450   69.7930 C   0  0  0  0  0  0  0  0  0  0  0  0
    3.7660   62.8210   68.1250 Cl  0  0  0  0  0  0  0  0  0  0  0  0
   -0.5370   57.9980   74.6170 S   0  0  0  0  0  6  0  0  0  0  0  0
   -0.9130   56.8140   73.8810 O   0  0  0  0  0  0  0  0  0  0  0  0
    0.0760   57.9230   75.9210 O   0  0  0  0  0  0  0  0  0  0  0  0
   -1.9300   58.9260   74.7780 N   0  0  0  0  0  0  0  0  0  0  0  0
    1.6067   62.5523   69.8658 H   0  0  0  0  0  0  0  0  0  0  0  0
    3.8497   61.0411   70.8114 H   0  0  0  0  0  0  0  0  0  0  0  0
    3.2350   58.8220   71.5352 H   0  0  0  0  0  0  0  0  0  0  0  0
   -0.6551   60.7796   73.9555 H   0  0  0  0  0  0  0  0  0  0  0  0
    1.8288   64.4122   71.4457 H   0  0  0  0  0  0  0  0  0  0  0  0
    3.2266   64.4921   69.7379 H   0  0  0  0  0  0  0  0  0  0  0  0
   -2.1370   59.0639   75.7775 H   0  0  0  0  0  0  0  0  0  0  0  0
   -1.7868   59.8412   74.3276 H   0  0  0  0  0  0  0  0  0  0  0  0
  2  1  1  0
  3  2  1  0
  4  3  2  0
  5  4  1  0
  6  5  1  0
  7  5  2  0
  8  7  1  0
  9  8  2  0
  9  3  1  0
 10  9  1  0
 11 10  2  0
 12 10  2  0
 13 10  1  0
 13  1  1  0
 15 14  1  0
 15  1  1  0
 16 15  1  0
 17  7  1  0
 18 17  2  0
 19 17  2  0
 20 17  1  0
  1 21  1  6
  2 22  1  0
  4 23  1  0
  8 24  1  0
 13 25  1  0
 15 26  1  0
 20 27  1  0
 20 28  1  0
M  END
>  <score>  (5) 
-6.396

$$$$
=
     RDKit          3D

 28 29  0  0  0  0  0  0  0  0999 V2000
    5.9660   70.3520   68.2500 C   0  0  1  0  0  0  0  0  0  0  0  0
    4.5130   70.3780   68.4460 N   0  0  0  0  0  0  0  0  0  0  0  0
    3.6970   69.7500   67.5000 C   0  0  0  0  0  0  0  0  0  0  0  0
    2.3520   69.5110   67.8220 C   0  0  0  0  0  0  0  0  0  0  0  0
    1.4530   68.9620   66.8910 C   0  0  0  0  0  0  0  0  0  0  0  0
   -0.1730   68.7410   67.4270 Cl  0  0  0  0  0  0  0  0  0  0  0  0
    1.8930   68.6680   65.5990 C   0  0  0  0  0  0  0  0  0  0  0  0
    3.2190   68.9360   65.2410 C   0  0  0  0  0  0  0  0  0  0  0  0
    4.0930   69.4800   66.1900 C   0  0  0  0  0  0  0  0  0  0  0  0
    5.7400   69.8620   65.7010 S   0  0  0  0  0  6  0  0  0  0  0  0
    5.6720   70.6610   64.5010 O   0  0  0  0  0  0  0  0  0  0  0  0
    6.5010   68.6390   65.7910 O   0  0  0  0  0  0  0  0  0  0  0  0
    6.2340   70.8770   66.9230 N   0  0  0  0  0  0  0  0  0  0  0  0
    6.9160   70.2480   70.8590 Cl  0  0  0  0  0  0  0  0  0  0  0  0
    6.7060   71.1800   69.3500 C   0  0  0  0  0  0  0  0  0  0  0  0
    8.3050   71.7700   68.7930 Cl  0  0  0  0  0  0  0  0  0  0  0  0
    0.8260   67.9300   64.3930 S   0  0  0  0  0  6  0  0  0  0  0  0
    0.9540   66.4960   64.5050 O   0  0  0  0  0  0  0  0  0  0  0  0
   -0.4550   68.5890   64.4610 O   0  0  0  0  0  0  0  0  0  0  0  0
    1.5270   68.3610   62.9270 N   0  0  0  0  0  0  0  0  0  0  0  0
    6.3431   69.3223   68.3366 H   0  0  0  0  0  0  0  0  0  0  0  0
    4.1017   70.8495   69.2642 H   0  0  0  0  0  0  0  0  0  0  0  0
    1.9913   69.7602   68.8309 H   0  0  0  0  0  0  0  0  0  0  0  0
    3.5720   68.7209   64.2216 H   0  0  0  0  0  0  0  0  0  0  0  0
    7.2484   71.0300   66.8308 H   0  0  0  0  0  0  0  0  0  0  0  0
    6.0620   72.0482   69.5537 H   0  0  0  0  0  0  0  0  0  0  0  0
    2.3915   68.8925   63.1029 H   0  0  0  0  0  0  0  0  0  0  0  0
    1.7500   67.5108   62.3899 H   0  0  0  0  0  0  0  0  0  0  0  0
  2  1  1  0
  3  2  1  0
  4  3  2  0
  5  4  1  0
  6  5  1  0
  7  5  2  0
  8  7  1  0
  9  8  2  0
  9  3  1  0
 10  9  1  0
 11 10  2  0
 12 10  2  0
 13 10  1  0
 13  1  1  0
 15 14  1  0
 15  1  1  0
 16 15  1  0
 17  7  1  0
 18 17  2  0
 19 17  2  0
 20 17  1  0
  1 21  1  6
  2 22  1  0
  4 23  1  0
  8 24  1  0
 13 25  1  0
 15 26  1  0
 20 27  1  0
 20 28  1  0
M  END
>  <score>  (6) 
-6.232

$$$$
=
     RDKit          3D

 28 29  0  0  0  0  0  0  0  0999 V2000
    2.5280   61.9870   71.5130 C   0  0  1  0  0  0  0  0  0  0  0  0
    1.7530   61.6310   72.7060 N   0  0  0  0  0  0  0  0  0  0  0  0
    2.3060   60.7300   73.6220 C   0  0  0  0  0  0  0  0  0  0  0  0
    1.7180   60.6120   74.8910 C   0  0  0  0  0  0  0  0  0  0  0  0
    2.1660   59.6680   75.8310 C   0  0  0  0  0  0  0  0  0  0  0  0
    1.3350   59.6320   77.3430 Cl  0  0  0  0  0  0  0  0  0  0  0  0
    3.2060   58.8000   75.4930 C   0  0  0  0  0  0  0  0  0  0  0  0
    3.7790   58.8680   74.2180 C   0  0  0  0  0  0  0  0  0  0  0  0
    3.3150   59.8210   73.3040 C   0  0  0  0  0  0  0  0  0  0  0  0
    4.0120   59.8530   71.6880 S   0  0  0  0  0  6  0  0  0  0  0  0
    3.9550   58.5120   71.1550 O   0  0  0  0  0  0  0  0  0  0  0  0
    5.2340   60.6160   71.7700 O   0  0  0  0  0  0  0  0  0  0  0  0
    2.8910   60.7490   70.8470 N   0  0  0  0  0  0  0  0  0  0  0  0
    0.0350   63.1490   71.1220 Cl  0  0  0  0  0  0  0  0  0  0  0  0
    1.7170   62.9270   70.5630 C   0  0  0  0  0  0  0  0  0  0  0  0
    2.4930   64.5320   70.3740 Cl  0  0  0  0  0  0  0  0  0  0  0  0
    3.8510   57.6200   76.6450 S   0  0  0  0  0  6  0  0  0  0  0  0
    4.1690   58.3210   77.8670 O   0  0  0  0  0  0  0  0  0  0  0  0
    2.9920   56.4610   76.6330 O   0  0  0  0  0  0  0  0  0  0  0  0
    5.3160   57.1570   75.9620 N   0  0  0  0  0  0  0  0  0  0  0  0
    3.4307   62.5465   71.7994 H   0  0  0  0  0  0  0  0  0  0  0  0
    0.8198   62.0364   72.8663 H   0  0  0  0  0  0  0  0  0  0  0  0
    0.8832   61.2770   75.1573 H   0  0  0  0  0  0  0  0  0  0  0  0
    4.5878   58.1777   73.9364 H   0  0  0  0  0  0  0  0  0  0  0  0
    3.2828   60.9780   69.9224 H   0  0  0  0  0  0  0  0  0  0  0  0
    1.7050   62.4249   69.5844 H   0  0  0  0  0  0  0  0  0  0  0  0
    5.9913   56.9436   76.7099 H   0  0  0  0  0  0  0  0  0  0  0  0
    5.1737   56.3200   75.3789 H   0  0  0  0  0  0  0  0  0  0  0  0
  2  1  1  0
  3  2  1  0
  4  3  2  0
  5  4  1  0
  6  5  1  0
  7  5  2  0
  8  7  1  0
  9  8  2  0
  9  3  1  0
 10  9  1  0
 11 10  2  0
 12 10  2  0
 13 10  1  0
 13  1  1  0
 15 14  1  0
 15  1  1  0
 16 15  1  0
 17  7  1  0
 18 17  2  0
 19 17  2  0
 20 17  1  0
  1 21  1  1
  2 22  1  0
  4 23  1  0
  8 24  1  0
 13 25  1  0
 15 26  1  0
 20 27  1  0
 20 28  1  0
M  END
>  <score>  (7) 
-6.158

$$$$
=
     RDKit          3D

 28 29  0  0  0  0  0  0  0  0999 V2000
    0.9250   68.1810   64.7800 C   0  0  1  0  0  0  0  0  0  0  0  0
    2.1390   68.9290   64.4410 N   0  0  0  0  0  0  0  0  0  0  0  0
    3.0160   69.2880   65.4700 C   0  0  0  0  0  0  0  0  0  0  0  0
    4.3040   69.7320   65.1340 C   0  0  0  0  0  0  0  0  0  0  0  0
    5.2080   70.1900   66.1090 C   0  0  0  0  0  0  0  0  0  0  0  0
    6.7510   70.7180   65.5420 Cl  0  0  0  0  0  0  0  0  0  0  0  0
    4.8140   70.2340   67.4470 C   0  0  0  0  0  0  0  0  0  0  0  0
    3.5200   69.8370   67.8020 C   0  0  0  0  0  0  0  0  0  0  0  0
    2.6420   69.3820   66.8100 C   0  0  0  0  0  0  0  0  0  0  0  0
    1.0020   68.9410   67.2710 S   0  0  0  0  0  6  0  0  0  0  0  0
    0.4460   70.0350   68.0320 O   0  0  0  0  0  0  0  0  0  0  0  0
    1.0510   67.5850   67.7630 O   0  0  0  0  0  0  0  0  0  0  0  0
    0.2220   68.9360   65.8020 N   0  0  0  0  0  0  0  0  0  0  0  0
   -1.5810   68.7110   63.7030 Cl  0  0  0  0  0  0  0  0  0  0  0  0
    0.0250   67.9510   63.5220 C   0  0  0  0  0  0  0  0  0  0  0  0
    0.7960   68.5490   62.0190 Cl  0  0  0  0  0  0  0  0  0  0  0  0
    5.9180   70.7530   68.7310 S   0  0  0  0  0  6  0  0  0  0  0  0
    5.2550   70.5480   69.9970 O   0  0  0  0  0  0  0  0  0  0  0  0
    7.2220   70.2010   68.4550 O   0  0  0  0  0  0  0  0  0  0  0  0
    6.0290   72.4160   68.5110 N   0  0  0  0  0  0  0  0  0  0  0  0
    1.1870   67.1810   65.1559 H   0  0  0  0  0  0  0  0  0  0  0  0
    2.3424   69.1853   63.4643 H   0  0  0  0  0  0  0  0  0  0  0  0
    4.6151   69.7215   64.0790 H   0  0  0  0  0  0  0  0  0  0  0  0
    3.1948   69.8819   68.8519 H   0  0  0  0  0  0  0  0  0  0  0  0
   -0.7124   68.5218   65.9296 H   0  0  0  0  0  0  0  0  0  0  0  0
   -0.1031   66.8615   63.4414 H   0  0  0  0  0  0  0  0  0  0  0  0
    6.0601   72.8824   69.4288 H   0  0  0  0  0  0  0  0  0  0  0  0
    6.8866   72.6362   67.9847 H   0  0  0  0  0  0  0  0  0  0  0  0
  2  1  1  0
  3  2  1  0
  4  3  2  0
  5  4  1  0
  6  5  1  0
  7  5  2  0
  8  7  1  0
  9  8  2  0
  9  3  1  0
 10  9  1  0
 11 10  2  0
 12 10  2  0
 13 10  1  0
 13  1  1  0
 15 14  1  0
 15  1  1  0
 16 15  1  0
 17  7  1  0
 18 17  2  0
 19 17  2  0
 20 17  1  0
  1 21  1  1
  2 22  1  0
  4 23  1  0
  8 24  1  0
 13 25  1  0
 15 26  1  0
 20 27  1  0
 20 28  1  0
M  END
>  <score>  (8) 
-6.014

$$$$
