=
     RDKit          3D

 16 17  0  0  0  0  0  0  0  0999 V2000
    7.6690   71.1680   69.4920 Cl  0  0  0  0  0  0  0  0  0  0  0  0
    6.2910   70.6530   68.5980 C   0  0  0  0  0  0  0  0  0  0  0  0
    5.0400   70.6420   69.2180 C   0  0  0  0  0  0  0  0  0  0  0  0
    3.9650   70.2220   68.4600 C   0  0  0  0  0  0  0  0  0  0  0  0
    2.6420   70.1360   68.8800 N   0  0  0  0  0  0  0  0  0  0  0  0
    1.8300   69.6760   67.8640 C   0  0  0  0  0  0  0  0  0  0  0  0
    0.6350   69.4870   67.8940 O   0  0  0  0  0  0  0  0  0  0  0  0
    2.7750   69.4480   66.6550 C   0  0  0  0  0  0  0  0  0  0  0  0
    2.4530   69.0460   65.5620 O   0  0  0  0  0  0  0  0  0  0  0  0
    4.1130   69.8220   67.1310 C   0  0  0  0  0  0  0  0  0  0  0  0
    5.3460   69.8290   66.5110 C   0  0  0  0  0  0  0  0  0  0  0  0
    6.4500   70.2520   67.2600 C   0  0  0  0  0  0  0  0  0  0  0  0
    5.5720   69.3470   64.8810 Cl  0  0  0  0  0  0  0  0  0  0  0  0
    4.9161   70.9545   70.2654 H   0  0  0  0  0  0  0  0  0  0  0  0
    2.3123   70.3829   69.8240 H   0  0  0  0  0  0  0  0  0  0  0  0
    7.4485   70.2708   66.7988 H   0  0  0  0  0  0  0  0  0  0  0  0
  2  1  1  0
  3  2  2  0
  4  3  1  0
  5  4  1  0
  6  5  1  0
  7  6  2  0
  8  6  1  0
  9  8  2  0
 10  8  1  0
 10  4  2  0
 11 10  1  0
 12 11  2  0
 12  2  1  0
 13 11  1  0
  3 14  1  0
  5 15  1  0
 12 16  1  0
M  END
>  <score>  (1) 
-8.306

$$$$
=
     RDKit          3D

 16 17  0  0  0  0  0  0  0  0999 V2000
    7.7520   71.3230   69.4450 Cl  0  0  0  0  0  0  0  0  0  0  0  0
    6.4880   70.7500   68.4250 C   0  0  0  0  0  0  0  0  0  0  0  0
    6.7850   70.3790   67.1120 C   0  0  0  0  0  0  0  0  0  0  0  0
    5.7390   69.9250   66.3340 C   0  0  0  0  0  0  0  0  0  0  0  0
    5.8150   69.5080   65.0100 N   0  0  0  0  0  0  0  0  0  0  0  0
    4.5770   69.1190   64.5420 C   0  0  0  0  0  0  0  0  0  0  0  0
    4.2940   68.7060   63.4410 O   0  0  0  0  0  0  0  0  0  0  0  0
    3.6050   69.3220   65.7340 C   0  0  0  0  0  0  0  0  0  0  0  0
    2.4190   69.0950   65.7360 O   0  0  0  0  0  0  0  0  0  0  0  0
    4.4360   69.8380   66.8300 C   0  0  0  0  0  0  0  0  0  0  0  0
    4.1350   70.2030   68.1260 C   0  0  0  0  0  0  0  0  0  0  0  0
    5.1790   70.6650   68.9330 C   0  0  0  0  0  0  0  0  0  0  0  0
    2.5500   70.1110   68.7740 Cl  0  0  0  0  0  0  0  0  0  0  0  0
    7.8086   70.4457   66.7147 H   0  0  0  0  0  0  0  0  0  0  0  0
    6.6809   69.4917   64.4524 H   0  0  0  0  0  0  0  0  0  0  0  0
    4.9755   70.9639   69.9719 H   0  0  0  0  0  0  0  0  0  0  0  0
  2  1  1  0
  3  2  2  0
  4  3  1  0
  5  4  1  0
  6  5  1  0
  7  6  2  0
  8  6  1  0
  9  8  2  0
 10  8  1  0
 10  4  2  0
 11 10  1  0
 12 11  2  0
 12  2  1  0
 13 11  1  0
  3 14  1  0
  5 15  1  0
 12 16  1  0
M  END
>  <score>  (2) 
-8.28

$$$$
=
     RDKit          3D

 16 17  0  0  0  0  0  0  0  0999 V2000
    6.2160   70.8700   69.0320 Cl  0  0  0  0  0  0  0  0  0  0  0  0
    5.3450   70.2930   67.6630 C   0  0  0  0  0  0  0  0  0  0  0  0
    5.9920   70.2060   66.4290 C   0  0  0  0  0  0  0  0  0  0  0  0
    5.2530   69.7380   65.3620 C   0  0  0  0  0  0  0  0  0  0  0  0
    5.7000   69.5730   64.0550 N   0  0  0  0  0  0  0  0  0  0  0  0
    4.6960   69.0840   63.2460 C   0  0  0  0  0  0  0  0  0  0  0  0
    4.7490   68.8300   62.0650 O   0  0  0  0  0  0  0  0  0  0  0  0
    3.4630   68.9230   64.1750 C   0  0  0  0  0  0  0  0  0  0  0  0
    2.3720   68.5180   63.8500 O   0  0  0  0  0  0  0  0  0  0  0  0
    3.9140   69.3640   65.5010 C   0  0  0  0  0  0  0  0  0  0  0  0
    3.2680   69.4470   66.7170 C   0  0  0  0  0  0  0  0  0  0  0  0
    3.9980   69.9190   67.8130 C   0  0  0  0  0  0  0  0  0  0  0  0
    1.6260   68.9990   66.9310 Cl  0  0  0  0  0  0  0  0  0  0  0  0
    7.0461   70.4981   66.3123 H   0  0  0  0  0  0  0  0  0  0  0  0
    6.6548   69.7877   63.7339 H   0  0  0  0  0  0  0  0  0  0  0  0
    3.5152   69.9980   68.7982 H   0  0  0  0  0  0  0  0  0  0  0  0
  2  1  1  0
  3  2  2  0
  4  3  1  0
  5  4  1  0
  6  5  1  0
  7  6  2  0
  8  6  1  0
  9  8  2  0
 10  8  1  0
 10  4  2  0
 11 10  1  0
 12 11  2  0
 12  2  1  0
 13 11  1  0
  3 14  1  0
  5 15  1  0
 12 16  1  0
M  END
>  <score>  (3) 
-8.072

$$$$
=
     RDKit          3D

 16 17  0  0  0  0  0  0  0  0999 V2000
    6.0370   70.8140   68.7050 Cl  0  0  0  0  0  0  0  0  0  0  0  0
    5.0470   70.1770   67.4480 C   0  0  0  0  0  0  0  0  0  0  0  0
    3.7250   69.8270   67.7320 C   0  0  0  0  0  0  0  0  0  0  0  0
    2.9710   69.3220   66.6910 C   0  0  0  0  0  0  0  0  0  0  0  0
    1.6430   68.9140   66.7560 N   0  0  0  0  0  0  0  0  0  0  0  0
    1.2040   68.4620   65.5290 C   0  0  0  0  0  0  0  0  0  0  0  0
    0.1090   68.0390   65.2390 O   0  0  0  0  0  0  0  0  0  0  0  0
    2.4220   68.6100   64.5780 C   0  0  0  0  0  0  0  0  0  0  0  0
    2.4520   68.3220   63.4050 O   0  0  0  0  0  0  0  0  0  0  0  0
    3.4990   69.1650   65.4080 C   0  0  0  0  0  0  0  0  0  0  0  0
    4.8040   69.5080   65.1200 C   0  0  0  0  0  0  0  0  0  0  0  0
    5.5870   70.0230   66.1590 C   0  0  0  0  0  0  0  0  0  0  0  0
    5.4910   69.3310   63.5590 Cl  0  0  0  0  0  0  0  0  0  0  0  0
    3.3030   69.9483   68.7405 H   0  0  0  0  0  0  0  0  0  0  0  0
    1.0641   68.9452   67.6074 H   0  0  0  0  0  0  0  0  0  0  0  0
    6.6315   70.3091   65.9662 H   0  0  0  0  0  0  0  0  0  0  0  0
  2  1  1  0
  3  2  2  0
  4  3  1  0
  5  4  1  0
  6  5  1  0
  7  6  2  0
  8  6  1  0
  9  8  2  0
 10  8  1  0
 10  4  2  0
 11 10  1  0
 12 11  2  0
 12  2  1  0
 13 11  1  0
  3 14  1  0
  5 15  1  0
 12 16  1  0
M  END
>  <score>  (4) 
-7.898

$$$$
=
     RDKit          3D

 16 17  0  0  0  0  0  0  0  0999 V2000
    5.9830   70.9140   68.7560 Cl  0  0  0  0  0  0  0  0  0  0  0  0
    4.6690   70.2320   67.8770 C   0  0  0  0  0  0  0  0  0  0  0  0
    3.4380   70.0590   68.5130 C   0  0  0  0  0  0  0  0  0  0  0  0
    2.4160   69.5090   67.7660 C   0  0  0  0  0  0  0  0  0  0  0  0
    1.1200   69.2530   68.2020 N   0  0  0  0  0  0  0  0  0  0  0  0
    0.3590   68.6980   67.1940 C   0  0  0  0  0  0  0  0  0  0  0  0
   -0.8010   68.3580   67.2380 O   0  0  0  0  0  0  0  0  0  0  0  0
    1.3100   68.5980   65.9710 C   0  0  0  0  0  0  0  0  0  0  0  0
    1.0270   68.1640   64.8800 O   0  0  0  0  0  0  0  0  0  0  0  0
    2.5950   69.1380   66.4320 C   0  0  0  0  0  0  0  0  0  0  0  0
    3.8080   69.3050   65.7970 C   0  0  0  0  0  0  0  0  0  0  0  0
    4.8600   69.8610   66.5340 C   0  0  0  0  0  0  0  0  0  0  0  0
    4.0720   68.8630   64.1610 Cl  0  0  0  0  0  0  0  0  0  0  0  0
    3.2892   70.3485   69.5637 H   0  0  0  0  0  0  0  0  0  0  0  0
    0.7743   69.4516   69.1517 H   0  0  0  0  0  0  0  0  0  0  0  0
    5.8417   70.0086   66.0601 H   0  0  0  0  0  0  0  0  0  0  0  0
  2  1  1  0
  3  2  2  0
  4  3  1  0
  5  4  1  0
  6  5  1  0
  7  6  2  0
  8  6  1  0
  9  8  2  0
 10  8  1  0
 10  4  2  0
 11 10  1  0
 12 11  2  0
 12  2  1  0
 13 11  1  0
  3 14  1  0
  5 15  1  0
 12 16  1  0
M  END
>  <score>  (5) 
-7.738

$$$$
=
     RDKit          3D

 16 17  0  0  0  0  0  0  0  0999 V2000
    0.7860   68.7600   67.9630 Cl  0  0  0  0  0  0  0  0  0  0  0  0
    1.8940   68.8890   66.6510 C   0  0  0  0  0  0  0  0  0  0  0  0
    1.4750   68.5340   65.3670 C   0  0  0  0  0  0  0  0  0  0  0  0
    2.3980   68.6560   64.3480 C   0  0  0  0  0  0  0  0  0  0  0  0
    2.1900   68.3580   63.0050 N   0  0  0  0  0  0  0  0  0  0  0  0
    3.3290   68.5960   62.2630 C   0  0  0  0  0  0  0  0  0  0  0  0
    3.4880   68.4430   61.0740 O   0  0  0  0  0  0  0  0  0  0  0  0
    4.3810   69.1090   63.2820 C   0  0  0  0  0  0  0  0  0  0  0  0
    5.5190   69.4320   63.0320 O   0  0  0  0  0  0  0  0  0  0  0  0
    3.6970   69.1130   64.5810 C   0  0  0  0  0  0  0  0  0  0  0  0
    4.1180   69.4650   65.8460 C   0  0  0  0  0  0  0  0  0  0  0  0
    3.1990   69.3510   66.8950 C   0  0  0  0  0  0  0  0  0  0  0  0
    5.7030   70.0300   66.1770 Cl  0  0  0  0  0  0  0  0  0  0  0  0
    0.4537   68.1728   65.1760 H   0  0  0  0  0  0  0  0  0  0  0  0
    1.3034   68.0064   62.6161 H   0  0  0  0  0  0  0  0  0  0  0  0
    3.4997   69.6247   67.9171 H   0  0  0  0  0  0  0  0  0  0  0  0
  2  1  1  0
  3  2  2  0
  4  3  1  0
  5  4  1  0
  6  5  1  0
  7  6  2  0
  8  6  1  0
  9  8  2  0
 10  8  1  0
 10  4  2  0
 11 10  1  0
 12 11  2  0
 12  2  1  0
 13 11  1  0
  3 14  1  0
  5 15  1  0
 12 16  1  0
M  END
>  <score>  (6) 
-7.411

$$$$
=
     RDKit          3D

 16 17  0  0  0  0  0  0  0  0999 V2000
   -0.7300   67.4160   66.7920 Cl  0  0  0  0  0  0  0  0  0  0  0  0
    0.8200   68.1390   66.6040 C   0  0  0  0  0  0  0  0  0  0  0  0
    1.4530   68.0830   65.3610 C   0  0  0  0  0  0  0  0  0  0  0  0
    2.6950   68.6780   65.2590 C   0  0  0  0  0  0  0  0  0  0  0  0
    3.4910   68.7370   64.1200 N   0  0  0  0  0  0  0  0  0  0  0  0
    4.6700   69.4070   64.3750 C   0  0  0  0  0  0  0  0  0  0  0  0
    5.5780   69.6340   63.6100 O   0  0  0  0  0  0  0  0  0  0  0  0
    4.5930   69.8180   65.8700 C   0  0  0  0  0  0  0  0  0  0  0  0
    5.4330   70.4280   66.4880 O   0  0  0  0  0  0  0  0  0  0  0  0
    3.3000   69.3110   66.3470 C   0  0  0  0  0  0  0  0  0  0  0  0
    2.6810   69.3700   67.5790 C   0  0  0  0  0  0  0  0  0  0  0  0
    1.4220   68.7740   67.7060 C   0  0  0  0  0  0  0  0  0  0  0  0
    3.3880   70.1360   68.9400 Cl  0  0  0  0  0  0  0  0  0  0  0  0
    0.9826   67.5862   64.4997 H   0  0  0  0  0  0  0  0  0  0  0  0
    3.2345   68.3341   63.2074 H   0  0  0  0  0  0  0  0  0  0  0  0
    0.8992   68.8019   68.6734 H   0  0  0  0  0  0  0  0  0  0  0  0
  2  1  1  0
  3  2  2  0
  4  3  1  0
  5  4  1  0
  6  5  1  0
  7  6  2  0
  8  6  1  0
  9  8  2  0
 10  8  1  0
 10  4  2  0
 11 10  1  0
 12 11  2  0
 12  2  1  0
 13 11  1  0
  3 14  1  0
  5 15  1  0
 12 16  1  0
M  END
>  <score>  (7) 
-7.159

$$$$
=
     RDKit          3D

 16 17  0  0  0  0  0  0  0  0999 V2000
    3.0730   69.6940   68.9250 Cl  0  0  0  0  0  0  0  0  0  0  0  0
    2.4020   69.2850   67.3930 C   0  0  0  0  0  0  0  0  0  0  0  0
    3.2380   69.2190   66.2770 C   0  0  0  0  0  0  0  0  0  0  0  0
    2.6540   68.8860   65.0710 C   0  0  0  0  0  0  0  0  0  0  0  0
    3.3000   68.7650   63.8460 N   0  0  0  0  0  0  0  0  0  0  0  0
    2.4110   68.4190   62.8490 C   0  0  0  0  0  0  0  0  0  0  0  0
    2.6420   68.2360   61.6760 O   0  0  0  0  0  0  0  0  0  0  0  0
    1.0310   68.3120   63.5510 C   0  0  0  0  0  0  0  0  0  0  0  0
   -0.0190   68.0270   63.0240 O   0  0  0  0  0  0  0  0  0  0  0  0
    1.2860   68.6260   64.9630 C   0  0  0  0  0  0  0  0  0  0  0  0
    0.4530   68.6900   66.0600 C   0  0  0  0  0  0  0  0  0  0  0  0
    1.0230   69.0250   67.2930 C   0  0  0  0  0  0  0  0  0  0  0  0
   -1.2310   68.3780   65.9710 Cl  0  0  0  0  0  0  0  0  0  0  0  0
    4.3160   69.4236   66.3551 H   0  0  0  0  0  0  0  0  0  0  0  0
    4.3089   68.9139   63.7017 H   0  0  0  0  0  0  0  0  0  0  0  0
    0.3890   69.0855   68.1899 H   0  0  0  0  0  0  0  0  0  0  0  0
  2  1  1  0
  3  2  2  0
  4  3  1  0
  5  4  1  0
  6  5  1  0
  7  6  2  0
  8  6  1  0
  9  8  2  0
 10  8  1  0
 10  4  2  0
 11 10  1  0
 12 11  2  0
 12  2  1  0
 13 11  1  0
  3 14  1  0
  5 15  1  0
 12 16  1  0
M  END
>  <score>  (8) 
-6.911

$$$$
=
     RDKit          3D

 16 17  0  0  0  0  0  0  0  0999 V2000
    0.2280   67.9800   67.6940 Cl  0  0  0  0  0  0  0  0  0  0  0  0
    0.7380   68.2620   66.0740 C   0  0  0  0  0  0  0  0  0  0  0  0
   -0.1740   68.7770   65.1500 C   0  0  0  0  0  0  0  0  0  0  0  0
    0.2830   68.9860   63.8650 C   0  0  0  0  0  0  0  0  0  0  0  0
   -0.4550   69.4890   62.7980 N   0  0  0  0  0  0  0  0  0  0  0  0
    0.3160   69.5670   61.6570 C   0  0  0  0  0  0  0  0  0  0  0  0
   -0.0150   69.9570   60.5600 O   0  0  0  0  0  0  0  0  0  0  0  0
    1.7170   69.0440   62.0710 C   0  0  0  0  0  0  0  0  0  0  0  0
    2.6860   68.9510   61.3550 O   0  0  0  0  0  0  0  0  0  0  0  0
    1.5980   68.6990   63.4940 C   0  0  0  0  0  0  0  0  0  0  0  0
    2.5050   68.1900   64.4000 C   0  0  0  0  0  0  0  0  0  0  0  0
    2.0650   67.9690   65.7100 C   0  0  0  0  0  0  0  0  0  0  0  0
    4.1280   67.8220   63.9870 Cl  0  0  0  0  0  0  0  0  0  0  0  0
   -1.2116   69.0060   65.4344 H   0  0  0  0  0  0  0  0  0  0  0  0
   -1.4455   69.7663   62.8529 H   0  0  0  0  0  0  0  0  0  0  0  0
    2.7608   67.5638   66.4595 H   0  0  0  0  0  0  0  0  0  0  0  0
  2  1  1  0
  3  2  2  0
  4  3  1  0
  5  4  1  0
  6  5  1  0
  7  6  2  0
  8  6  1  0
  9  8  2  0
 10  8  1  0
 10  4  2  0
 11 10  1  0
 12 11  2  0
 12  2  1  0
 13 11  1  0
  3 14  1  0
  5 15  1  0
 12 16  1  0
M  END
>  <score>  (9) 
-6.711

$$$$
