=
     RDKit          3D

 25 25  0  0  0  0  0  0  0  0999 V2000
    4.2390   69.3340   65.3100 C   0  0  0  0  0  0  0  0  0  0  0  0
    5.4910   69.8110   65.7270 C   0  0  0  0  0  0  0  0  0  0  0  0
    5.6870   70.2360   67.0440 C   0  0  0  0  0  0  0  0  0  0  0  0
    4.6320   70.1790   67.9510 C   0  0  0  0  0  0  0  0  0  0  0  0
    3.3920   69.6840   67.5520 C   0  0  0  0  0  0  0  0  0  0  0  0
    3.1900   69.2590   66.2390 C   0  0  0  0  0  0  0  0  0  0  0  0
    2.3700   69.6260   68.4570 O   0  0  0  0  0  0  0  0  0  0  0  0
    4.8040   70.5950   69.2400 O   0  0  0  0  0  0  0  0  0  0  0  0
    4.0170   68.9270   63.8700 C   0  0  0  0  0  0  0  0  0  0  0  0
    5.1220   68.0200   63.3320 C   0  0  2  0  0  0  0  0  0  0  0  0
    6.0340   68.7840   62.3790 N   0  0  0  0  0  4  0  0  0  0  0  0
    4.8250   65.6560   63.0070 O   0  0  0  0  0  1  0  0  0  0  0  0
    4.5390   66.7930   62.5800 C   0  0  0  0  0  0  0  0  0  0  0  0
    3.8100   67.2010   61.6160 O   0  0  0  0  0  0  0  0  0  0  0  0
    6.3254   69.8508   65.0113 H   0  0  0  0  0  0  0  0  0  0  0  0
    6.6698   70.6137   67.3624 H   0  0  0  0  0  0  0  0  0  0  0  0
    2.2097   68.8655   65.9321 H   0  0  0  0  0  0  0  0  0  0  0  0
    1.4854   69.2759   68.1830 H   0  0  0  0  0  0  0  0  0  0  0  0
    4.0492   70.5514   69.8791 H   0  0  0  0  0  0  0  0  0  0  0  0
    3.0585   68.3919   63.8002 H   0  0  0  0  0  0  0  0  0  0  0  0
    4.0184   69.8447   63.2634 H   0  0  0  0  0  0  0  0  0  0  0  0
    5.6971   67.6699   64.2019 H   0  0  0  0  0  0  0  0  0  0  0  0
    6.7048   69.3459   62.9223 H   0  0  0  0  0  0  0  0  0  0  0  0
    6.5468   68.1165   61.7854 H   0  0  0  0  0  0  0  0  0  0  0  0
    5.4667   69.4058   61.7854 H   0  0  0  0  0  0  0  0  0  0  0  0
  2  1  2  0
  3  2  1  0
  4  3  2  0
  5  4  1  0
  6  1  1  0
  6  5  2  0
  7  5  1  0
  8  4  1  0
  9  1  1  0
 10  9  1  0
 11 10  1  0
 13 12  1  0
 13 10  1  0
 14 13  2  0
  2 15  1  0
  3 16  1  0
  6 17  1  0
  7 18  1  0
  8 19  1  0
  9 20  1  0
  9 21  1  0
 10 22  1  1
 11 23  1  0
 11 24  1  0
 11 25  1  0
M  CHG  2  11   1  12  -1
M  END
>  <score>  (1) 
-7.451

$$$$
=
     RDKit          3D

 25 25  0  0  0  0  0  0  0  0999 V2000
    3.6080   69.4510   66.4930 C   0  0  0  0  0  0  0  0  0  0  0  0
    4.9130   69.6300   66.0080 C   0  0  0  0  0  0  0  0  0  0  0  0
    5.8970   70.2090   66.8150 C   0  0  0  0  0  0  0  0  0  0  0  0
    5.5800   70.6050   68.1110 C   0  0  0  0  0  0  0  0  0  0  0  0
    4.2930   70.4090   68.6090 C   0  0  0  0  0  0  0  0  0  0  0  0
    3.3070   69.8320   67.8090 C   0  0  0  0  0  0  0  0  0  0  0  0
    4.0020   70.7940   69.8870 O   0  0  0  0  0  0  0  0  0  0  0  0
    6.5270   71.1780   68.9110 O   0  0  0  0  0  0  0  0  0  0  0  0
    2.5330   68.8730   65.5980 C   0  0  0  0  0  0  0  0  0  0  0  0
    1.7970   67.6970   66.2370 C   0  0  2  0  0  0  0  0  0  0  0  0
    2.3090   66.3730   65.6820 N   0  0  0  0  0  4  0  0  0  0  0  0
   -0.1670   68.7360   65.3190 O   0  0  0  0  0  1  0  0  0  0  0  0
    0.2670   67.7780   65.9900 C   0  0  0  0  0  0  0  0  0  0  0  0
   -0.2990   66.7720   66.5340 O   0  0  0  0  0  0  0  0  0  0  0  0
    5.1634   69.3123   64.9851 H   0  0  0  0  0  0  0  0  0  0  0  0
    6.9167   70.3508   66.4275 H   0  0  0  0  0  0  0  0  0  0  0  0
    2.2945   69.6759   68.2096 H   0  0  0  0  0  0  0  0  0  0  0  0
    3.0907   70.6588   70.2493 H   0  0  0  0  0  0  0  0  0  0  0  0
    6.2941   71.4571   69.8318 H   0  0  0  0  0  0  0  0  0  0  0  0
    1.8022   69.6634   65.3717 H   0  0  0  0  0  0  0  0  0  0  0  0
    3.0262   68.4992   64.6886 H   0  0  0  0  0  0  0  0  0  0  0  0
    1.9901   67.7505   67.3186 H   0  0  0  0  0  0  0  0  0  0  0  0
    2.5519   65.7450   66.4614 H   0  0  0  0  0  0  0  0  0  0  0  0
    1.5762   65.9363   65.1048 H   0  0  0  0  0  0  0  0  0  0  0  0
    3.1449   66.5430   65.1048 H   0  0  0  0  0  0  0  0  0  0  0  0
  2  1  2  0
  3  2  1  0
  4  3  2  0
  5  4  1  0
  6  1  1  0
  6  5  2  0
  7  5  1  0
  8  4  1  0
  9  1  1  0
 10  9  1  0
 11 10  1  0
 13 12  1  0
 13 10  1  0
 14 13  2  0
  2 15  1  0
  3 16  1  0
  6 17  1  0
  7 18  1  0
  8 19  1  0
  9 20  1  0
  9 21  1  0
 10 22  1  1
 11 23  1  0
 11 24  1  0
 11 25  1  0
M  CHG  2  11   1  12  -1
M  END
>  <score>  (2) 
-7.352

$$$$
=
     RDKit          3D

 25 25  0  0  0  0  0  0  0  0999 V2000
    3.4250   69.1390   66.0880 C   0  0  0  0  0  0  0  0  0  0  0  0
    4.7680   69.4810   65.8680 C   0  0  0  0  0  0  0  0  0  0  0  0
    5.5090   70.1240   66.8630 C   0  0  0  0  0  0  0  0  0  0  0  0
    4.9110   70.4220   68.0840 C   0  0  0  0  0  0  0  0  0  0  0  0
    3.5850   70.0650   68.3200 C   0  0  0  0  0  0  0  0  0  0  0  0
    2.8400   69.4230   67.3310 C   0  0  0  0  0  0  0  0  0  0  0  0
    3.0160   70.3560   69.5280 O   0  0  0  0  0  0  0  0  0  0  0  0
    5.6180   71.0560   69.0650 O   0  0  0  0  0  0  0  0  0  0  0  0
    2.6110   68.4920   64.9890 C   0  0  0  0  0  0  0  0  0  0  0  0
    1.1470   68.2880   65.3760 C   0  0  2  0  0  0  0  0  0  0  0  0
    0.8670   66.8210   65.6830 N   0  0  0  0  0  4  0  0  0  0  0  0
   -1.0400   68.6960   64.4620 O   0  0  0  0  0  1  0  0  0  0  0  0
    0.1880   68.7470   64.2440 C   0  0  0  0  0  0  0  0  0  0  0  0
    0.8770   69.1380   63.2440 O   0  0  0  0  0  0  0  0  0  0  0  0
    5.2413   69.2410   64.9045 H   0  0  0  0  0  0  0  0  0  0  0  0
    6.5601   70.3934   66.6821 H   0  0  0  0  0  0  0  0  0  0  0  0
    1.7950   69.1397   67.5254 H   0  0  0  0  0  0  0  0  0  0  0  0
    2.0745   70.1062   69.7047 H   0  0  0  0  0  0  0  0  0  0  0  0
    5.1856   71.2645   69.9308 H   0  0  0  0  0  0  0  0  0  0  0  0
    2.6522   69.1343   64.0970 H   0  0  0  0  0  0  0  0  0  0  0  0
    3.0438   67.4989   64.7982 H   0  0  0  0  0  0  0  0  0  0  0  0
    0.9668   68.8998   66.2722 H   0  0  0  0  0  0  0  0  0  0  0  0
    0.8406   66.6827   66.7033 H   0  0  0  0  0  0  0  0  0  0  0  0
   -0.0405   66.5523   65.2765 H   0  0  0  0  0  0  0  0  0  0  0  0
    1.6117   66.2370   65.2765 H   0  0  0  0  0  0  0  0  0  0  0  0
  2  1  2  0
  3  2  1  0
  4  3  2  0
  5  4  1  0
  6  1  1  0
  6  5  2  0
  7  5  1  0
  8  4  1  0
  9  1  1  0
 10  9  1  0
 11 10  1  0
 13 12  1  0
 13 10  1  0
 14 13  2  0
  2 15  1  0
  3 16  1  0
  6 17  1  0
  7 18  1  0
  8 19  1  0
  9 20  1  0
  9 21  1  0
 10 22  1  1
 11 23  1  0
 11 24  1  0
 11 25  1  0
M  CHG  2  11   1  12  -1
M  END
>  <score>  (3) 
-7.337

$$$$
=
     RDKit          3D

 25 25  0  0  0  0  0  0  0  0999 V2000
    4.0310   69.4530   65.9080 C   0  0  0  0  0  0  0  0  0  0  0  0
    2.9000   69.3670   66.7340 C   0  0  0  0  0  0  0  0  0  0  0  0
    2.9700   69.7520   68.0760 C   0  0  0  0  0  0  0  0  0  0  0  0
    4.1690   70.2300   68.5940 C   0  0  0  0  0  0  0  0  0  0  0  0
    5.2910   70.3420   67.7750 C   0  0  0  0  0  0  0  0  0  0  0  0
    5.2290   69.9590   66.4350 C   0  0  0  0  0  0  0  0  0  0  0  0
    6.4580   70.8230   68.2980 O   0  0  0  0  0  0  0  0  0  0  0  0
    4.2570   70.6050   69.9040 O   0  0  0  0  0  0  0  0  0  0  0  0
    3.9660   68.9840   64.4700 C   0  0  0  0  0  0  0  0  0  0  0  0
    5.0870   68.0100   64.1120 C   0  0  2  0  0  0  0  0  0  0  0  0
    6.0510   68.6390   63.1130 N   0  0  0  0  0  4  0  0  0  0  0  0
    4.9290   66.3640   62.3670 O   0  0  0  0  0  1  0  0  0  0  0  0
    4.5300   66.6960   63.5010 C   0  0  0  0  0  0  0  0  0  0  0  0
    3.7320   66.1520   64.3350 O   0  0  0  0  0  0  0  0  0  0  0  0
    1.9507   68.9937   66.3223 H   0  0  0  0  0  0  0  0  0  0  0  0
    2.0809   69.6773   68.7194 H   0  0  0  0  0  0  0  0  0  0  0  0
    6.1172   70.0534   65.7930 H   0  0  0  0  0  0  0  0  0  0  0  0
    7.2604   70.9062   67.7241 H   0  0  0  0  0  0  0  0  0  0  0  0
    5.1140   70.9443   70.2653 H   0  0  0  0  0  0  0  0  0  0  0  0
    3.0003   68.4830   64.3074 H   0  0  0  0  0  0  0  0  0  0  0  0
    4.0804   69.8699   63.8280 H   0  0  0  0  0  0  0  0  0  0  0  0
    5.6156   67.7758   65.0478 H   0  0  0  0  0  0  0  0  0  0  0  0
    6.8012   69.1285   63.6214 H   0  0  0  0  0  0  0  0  0  0  0  0
    6.4612   67.9025   62.5213 H   0  0  0  0  0  0  0  0  0  0  0  0
    5.5421   69.3111   62.5213 H   0  0  0  0  0  0  0  0  0  0  0  0
  2  1  2  0
  3  2  1  0
  4  3  2  0
  5  4  1  0
  6  1  1  0
  6  5  2  0
  7  5  1  0
  8  4  1  0
  9  1  1  0
 10  9  1  0
 11 10  1  0
 13 12  1  0
 13 10  1  0
 14 13  2  0
  2 15  1  0
  3 16  1  0
  6 17  1  0
  7 18  1  0
  8 19  1  0
  9 20  1  0
  9 21  1  0
 10 22  1  1
 11 23  1  0
 11 24  1  0
 11 25  1  0
M  CHG  2  11   1  12  -1
M  END
>  <score>  (4) 
-7.093

$$$$
=
     RDKit          3D

 25 25  0  0  0  0  0  0  0  0999 V2000
    4.2580   69.4940   65.7660 C   0  0  0  0  0  0  0  0  0  0  0  0
    5.3950   70.0180   66.4000 C   0  0  0  0  0  0  0  0  0  0  0  0
    5.3470   70.3960   67.7460 C   0  0  0  0  0  0  0  0  0  0  0  0
    4.1630   70.2440   68.4620 C   0  0  0  0  0  0  0  0  0  0  0  0
    3.0360   69.7020   67.8460 C   0  0  0  0  0  0  0  0  0  0  0  0
    3.0780   69.3240   66.5050 C   0  0  0  0  0  0  0  0  0  0  0  0
    1.8860   69.5510   68.5670 O   0  0  0  0  0  0  0  0  0  0  0  0
    4.0970   70.6130   69.7750 O   0  0  0  0  0  0  0  0  0  0  0  0
    4.3000   69.1380   64.2960 C   0  0  0  0  0  0  0  0  0  0  0  0
    3.1760   68.1890   63.8840 C   0  0  2  0  0  0  0  0  0  0  0  0
    3.6440   66.7390   63.9420 N   0  0  0  0  0  4  0  0  0  0  0  0
    1.4430   68.5800   62.2640 O   0  0  0  0  0  1  0  0  0  0  0  0
    2.6740   68.4880   62.4460 C   0  0  0  0  0  0  0  0  0  0  0  0
    3.6780   68.6140   61.6690 O   0  0  0  0  0  0  0  0  0  0  0  0
    6.3313   70.1324   65.8341 H   0  0  0  0  0  0  0  0  0  0  0  0
    6.2401   70.8111   68.2360 H   0  0  0  0  0  0  0  0  0  0  0  0
    2.1863   68.8927   66.0266 H   0  0  0  0  0  0  0  0  0  0  0  0
    1.0801   69.1671   68.1389 H   0  0  0  0  0  0  0  0  0  0  0  0
    3.2518   70.5022   70.2784 H   0  0  0  0  0  0  0  0  0  0  0  0
    4.2120   70.0633   63.7077 H   0  0  0  0  0  0  0  0  0  0  0  0
    5.2537   68.6233   64.1072 H   0  0  0  0  0  0  0  0  0  0  0  0
    2.3506   68.3463   64.5939 H   0  0  0  0  0  0  0  0  0  0  0  0
    3.7380   66.4477   64.9255 H   0  0  0  0  0  0  0  0  0  0  0  0
    2.9547   66.1366   63.4699 H   0  0  0  0  0  0  0  0  0  0  0  0
    4.5554   66.6532   63.4699 H   0  0  0  0  0  0  0  0  0  0  0  0
  2  1  2  0
  3  2  1  0
  4  3  2  0
  5  4  1  0
  6  1  1  0
  6  5  2  0
  7  5  1  0
  8  4  1  0
  9  1  1  0
 10  9  1  0
 11 10  1  0
 13 12  1  0
 13 10  1  0
 14 13  2  0
  2 15  1  0
  3 16  1  0
  6 17  1  0
  7 18  1  0
  8 19  1  0
  9 20  1  0
  9 21  1  0
 10 22  1  1
 11 23  1  0
 11 24  1  0
 11 25  1  0
M  CHG  2  11   1  12  -1
M  END
>  <score>  (5) 
-7.047

$$$$
=
     RDKit          3D

 25 25  0  0  0  0  0  0  0  0999 V2000
    2.3230   68.7150   64.8090 C   0  0  0  0  0  0  0  0  0  0  0  0
    3.5980   68.8410   64.2380 C   0  0  0  0  0  0  0  0  0  0  0  0
    3.7570   68.8530   62.8490 C   0  0  0  0  0  0  0  0  0  0  0  0
    2.6390   68.7450   62.0270 C   0  0  0  0  0  0  0  0  0  0  0  0
    1.3660   68.6440   62.5850 C   0  0  0  0  0  0  0  0  0  0  0  0
    1.2010   68.6320   63.9700 C   0  0  0  0  0  0  0  0  0  0  0  0
    0.2790   68.5490   61.7640 O   0  0  0  0  0  0  0  0  0  0  0  0
    2.7760   68.7480   60.6680 O   0  0  0  0  0  0  0  0  0  0  0  0
    2.1620   68.6490   66.3120 C   0  0  0  0  0  0  0  0  0  0  0  0
    0.7000   68.6980   66.7550 C   0  0  2  0  0  0  0  0  0  0  0  0
    0.5170   69.6770   67.9090 N   0  0  0  0  0  4  0  0  0  0  0  0
   -0.8100   66.8310   66.6320 O   0  0  0  0  0  1  0  0  0  0  0  0
    0.1930   67.3020   67.2060 C   0  0  0  0  0  0  0  0  0  0  0  0
    0.9570   66.8560   68.1250 O   0  0  0  0  0  0  0  0  0  0  0  0
    4.4804   68.9311   64.8886 H   0  0  0  0  0  0  0  0  0  0  0  0
    4.7604   68.9473   62.4081 H   0  0  0  0  0  0  0  0  0  0  0  0
    0.1930   68.5576   64.4040 H   0  0  0  0  0  0  0  0  0  0  0  0
   -0.6292   68.4769   62.1515 H   0  0  0  0  0  0  0  0  0  0  0  0
    1.9762   68.6708   60.0897 H   0  0  0  0  0  0  0  0  0  0  0  0
    2.6068   67.7095   66.6720 H   0  0  0  0  0  0  0  0  0  0  0  0
    2.6661   69.5292   66.7375 H   0  0  0  0  0  0  0  0  0  0  0  0
    0.1146   69.0301   65.8849 H   0  0  0  0  0  0  0  0  0  0  0  0
    0.6109   69.1749   68.8034 H   0  0  0  0  0  0  0  0  0  0  0  0
    1.2349   70.4134   67.8517 H   0  0  0  0  0  0  0  0  0  0  0  0
   -0.4184   70.1043   67.8517 H   0  0  0  0  0  0  0  0  0  0  0  0
  2  1  2  0
  3  2  1  0
  4  3  2  0
  5  4  1  0
  6  1  1  0
  6  5  2  0
  7  5  1  0
  8  4  1  0
  9  1  1  0
 10  9  1  0
 11 10  1  0
 13 12  1  0
 13 10  1  0
 14 13  2  0
  2 15  1  0
  3 16  1  0
  6 17  1  0
  7 18  1  0
  8 19  1  0
  9 20  1  0
  9 21  1  0
 10 22  1  6
 11 23  1  0
 11 24  1  0
 11 25  1  0
M  CHG  2  11   1  12  -1
M  END
>  <score>  (6) 
-6.863

$$$$
=
     RDKit          3D

 25 25  0  0  0  0  0  0  0  0999 V2000
    3.4660   69.6040   67.1500 C   0  0  0  0  0  0  0  0  0  0  0  0
    3.3250   70.0850   68.4610 C   0  0  0  0  0  0  0  0  0  0  0  0
    4.4280   70.5920   69.1530 C   0  0  0  0  0  0  0  0  0  0  0  0
    5.6740   70.6260   68.5350 C   0  0  0  0  0  0  0  0  0  0  0  0
    5.8190   70.1730   67.2240 C   0  0  0  0  0  0  0  0  0  0  0  0
    4.7220   69.6660   66.5280 C   0  0  0  0  0  0  0  0  0  0  0  0
    7.0470   70.2230   66.6290 O   0  0  0  0  0  0  0  0  0  0  0  0
    6.7640   71.1130   69.1990 O   0  0  0  0  0  0  0  0  0  0  0  0
    2.2800   69.0060   66.4230 C   0  0  0  0  0  0  0  0  0  0  0  0
    2.6470   68.4450   65.0510 C   0  0  2  0  0  0  0  0  0  0  0  0
    1.6910   68.9620   63.9820 N   0  0  0  0  0  4  0  0  0  0  0  0
    3.5030   66.2910   64.4110 O   0  0  0  0  0  1  0  0  0  0  0  0
    2.6090   66.8930   65.0390 C   0  0  0  0  0  0  0  0  0  0  0  0
    1.6180   66.4940   65.7370 O   0  0  0  0  0  0  0  0  0  0  0  0
    2.3386   70.0627   68.9474 H   0  0  0  0  0  0  0  0  0  0  0  0
    4.3116   70.9627   70.1821 H   0  0  0  0  0  0  0  0  0  0  0  0
    4.8414   69.3151   65.4923 H   0  0  0  0  0  0  0  0  0  0  0  0
    7.1597   69.9037   65.6987 H   0  0  0  0  0  0  0  0  0  0  0  0
    7.6472   71.1338   68.7523 H   0  0  0  0  0  0  0  0  0  0  0  0
    1.8662   68.1919   67.0361 H   0  0  0  0  0  0  0  0  0  0  0  0
    1.5479   69.8118   66.2658 H   0  0  0  0  0  0  0  0  0  0  0  0
    3.6713   68.7817   64.8333 H   0  0  0  0  0  0  0  0  0  0  0  0
    0.8767   69.4024   64.4336 H   0  0  0  0  0  0  0  0  0  0  0  0
    2.1752   69.6562   63.3951 H   0  0  0  0  0  0  0  0  0  0  0  0
    1.3751   68.1767   63.3951 H   0  0  0  0  0  0  0  0  0  0  0  0
  2  1  2  0
  3  2  1  0
  4  3  2  0
  5  4  1  0
  6  1  1  0
  6  5  2  0
  7  5  1  0
  8  4  1  0
  9  1  1  0
 10  9  1  0
 11 10  1  0
 13 12  1  0
 13 10  1  0
 14 13  2  0
  2 15  1  0
  3 16  1  0
  6 17  1  0
  7 18  1  0
  8 19  1  0
  9 20  1  0
  9 21  1  0
 10 22  1  6
 11 23  1  0
 11 24  1  0
 11 25  1  0
M  CHG  2  11   1  12  -1
M  END
>  <score>  (7) 
-6.824

$$$$
=
     RDKit          3D

 25 25  0  0  0  0  0  0  0  0999 V2000
    2.7400   68.8380   64.5930 C   0  0  0  0  0  0  0  0  0  0  0  0
    3.3560   69.1910   65.8030 C   0  0  0  0  0  0  0  0  0  0  0  0
    2.6280   69.1920   66.9970 C   0  0  0  0  0  0  0  0  0  0  0  0
    1.2840   68.8330   66.9850 C   0  0  0  0  0  0  0  0  0  0  0  0
    0.6700   68.4570   65.7920 C   0  0  0  0  0  0  0  0  0  0  0  0
    1.3900   68.4540   64.5970 C   0  0  0  0  0  0  0  0  0  0  0  0
   -0.6480   68.0980   65.7990 O   0  0  0  0  0  0  0  0  0  0  0  0
    0.5570   68.8330   68.1410 O   0  0  0  0  0  0  0  0  0  0  0  0
    3.5170   68.8910   63.2960 C   0  0  0  0  0  0  0  0  0  0  0  0
    4.7880   68.0450   63.3300 C   0  0  2  0  0  0  0  0  0  0  0  0
    5.8070   68.5570   62.3180 N   0  0  0  0  0  4  0  0  0  0  0  0
    4.1940   66.2490   61.8460 O   0  0  0  0  0  1  0  0  0  0  0  0
    4.4910   66.5530   63.0190 C   0  0  0  0  0  0  0  0  0  0  0  0
    4.6360   65.8670   64.0850 O   0  0  0  0  0  0  0  0  0  0  0  0
    4.4202   69.4692   65.8126 H   0  0  0  0  0  0  0  0  0  0  0  0
    3.1158   69.4753   67.9413 H   0  0  0  0  0  0  0  0  0  0  0  0
    0.9005   68.1512   63.6596 H   0  0  0  0  0  0  0  0  0  0  0  0
   -1.0924   67.8295   64.9561 H   0  0  0  0  0  0  0  0  0  0  0  0
   -0.3990   68.5763   68.1245 H   0  0  0  0  0  0  0  0  0  0  0  0
    2.8717   68.5226   62.4849 H   0  0  0  0  0  0  0  0  0  0  0  0
    3.8201   69.9361   63.1351 H   0  0  0  0  0  0  0  0  0  0  0  0
    5.1961   68.1267   64.3482 H   0  0  0  0  0  0  0  0  0  0  0  0
    6.6124   68.9617   62.8165 H   0  0  0  0  0  0  0  0  0  0  0  0
    6.1261   67.7761   61.7269 H   0  0  0  0  0  0  0  0  0  0  0  0
    5.3709   69.2791   61.7269 H   0  0  0  0  0  0  0  0  0  0  0  0
  2  1  2  0
  3  2  1  0
  4  3  2  0
  5  4  1  0
  6  1  1  0
  6  5  2  0
  7  5  1  0
  8  4  1  0
  9  1  1  0
 10  9  1  0
 11 10  1  0
 13 12  1  0
 13 10  1  0
 14 13  2  0
  2 15  1  0
  3 16  1  0
  6 17  1  0
  7 18  1  0
  8 19  1  0
  9 20  1  0
  9 21  1  0
 10 22  1  1
 11 23  1  0
 11 24  1  0
 11 25  1  0
M  CHG  2  11   1  12  -1
M  END
>  <score>  (8) 
-6.62

$$$$
=
     RDKit          3D

 25 25  0  0  0  0  0  0  0  0999 V2000
    3.0860   69.1590   65.7680 C   0  0  0  0  0  0  0  0  0  0  0  0
    4.4510   69.4020   65.5530 C   0  0  0  0  0  0  0  0  0  0  0  0
    5.2520   69.9100   66.5790 C   0  0  0  0  0  0  0  0  0  0  0  0
    4.6920   70.1720   67.8260 C   0  0  0  0  0  0  0  0  0  0  0  0
    3.3420   69.9110   68.0560 C   0  0  0  0  0  0  0  0  0  0  0  0
    2.5370   69.4040   67.0360 C   0  0  0  0  0  0  0  0  0  0  0  0
    2.8100   70.1650   69.2880 O   0  0  0  0  0  0  0  0  0  0  0  0
    5.4580   70.6750   68.8380 O   0  0  0  0  0  0  0  0  0  0  0  0
    2.2110   68.6590   64.6390 C   0  0  0  0  0  0  0  0  0  0  0  0
    1.7600   67.2130   64.8330 C   0  0  2  0  0  0  0  0  0  0  0  0
    1.2620   66.9870   66.2560 N   0  0  0  0  0  4  0  0  0  0  0  0
    3.0210   65.2190   65.2950 O   0  0  0  0  0  1  0  0  0  0  0  0
    2.9120   66.2120   64.5480 C   0  0  0  0  0  0  0  0  0  0  0  0
    3.5620   66.6030   63.5230 O   0  0  0  0  0  0  0  0  0  0  0  0
    4.8942   69.1909   64.5686 H   0  0  0  0  0  0  0  0  0  0  0  0
    6.3205   70.1020   66.4020 H   0  0  0  0  0  0  0  0  0  0  0  0
    1.4734   69.1965   67.2252 H   0  0  0  0  0  0  0  0  0  0  0  0
    1.8524   69.9829   69.4608 H   0  0  0  0  0  0  0  0  0  0  0  0
    5.0518   70.8585   69.7220 H   0  0  0  0  0  0  0  0  0  0  0  0
    1.3190   69.2995   64.5761 H   0  0  0  0  0  0  0  0  0  0  0  0
    2.8084   68.6977   63.7161 H   0  0  0  0  0  0  0  0  0  0  0  0
    0.9435   67.0362   64.1174 H   0  0  0  0  0  0  0  0  0  0  0  0
    1.9753   67.3107   66.9248 H   0  0  0  0  0  0  0  0  0  0  0  0
    0.3896   67.5146   66.4023 H   0  0  0  0  0  0  0  0  0  0  0  0
    1.0847   65.9830   66.4023 H   0  0  0  0  0  0  0  0  0  0  0  0
  2  1  2  0
  3  2  1  0
  4  3  2  0
  5  4  1  0
  6  1  1  0
  6  5  2  0
  7  5  1  0
  8  4  1  0
  9  1  1  0
 10  9  1  0
 11 10  1  0
 13 12  1  0
 13 10  1  0
 14 13  2  0
  2 15  1  0
  3 16  1  0
  6 17  1  0
  7 18  1  0
  8 19  1  0
  9 20  1  0
  9 21  1  0
 10 22  1  6
 11 23  1  0
 11 24  1  0
 11 25  1  0
M  CHG  2  11   1  12  -1
M  END
>  <score>  (9) 
-6.572

$$$$
