=
     RDKit          3D

 83 84  0  0  0  0  0  0  0  0999 V2000
    1.5870   66.2490   67.3550 C   0  0  0  0  0  0  0  0  0  0  0  0
    0.7610   67.1100   68.3180 C   0  0  0  0  0  0  0  0  0  0  0  0
   -0.6700   66.5520   68.3770 C   0  0  0  0  0  0  0  0  0  0  0  0
    1.3680   67.1940   70.0770 S   0  0  0  0  0  0  0  0  0  0  0  0
    1.5560   65.4780   70.5060 C   0  0  0  0  0  0  0  0  0  0  0  0
    2.3960   64.6500   69.7590 C   0  0  0  0  0  0  0  0  0  0  0  0
    2.5780   63.2960   70.0890 C   0  0  0  0  0  0  0  0  0  0  0  0
    1.8450   62.8140   71.2040 C   0  0  0  0  0  0  0  0  0  0  0  0
    0.9880   63.6190   71.9930 C   0  0  0  0  0  0  0  0  0  0  0  0
    0.8520   64.9600   71.5960 C   0  0  0  0  0  0  0  0  0  0  0  0
    0.2550   63.0930   73.2500 C   0  0  0  0  0  0  0  0  0  0  0  0
    1.1840   62.3450   74.2430 C   0  0  0  0  0  0  0  0  0  0  0  0
   -0.3730   64.2570   74.0470 C   0  0  0  0  0  0  0  0  0  0  0  0
   -0.8400   62.0800   72.8490 C   0  0  0  0  0  0  0  0  0  0  0  0
    3.5480   62.4070   69.2730 C   0  0  0  0  0  0  0  0  0  0  0  0
    4.8960   62.2570   70.0080 C   0  0  0  0  0  0  0  0  0  0  0  0
    3.7780   63.0060   67.8660 C   0  0  0  0  0  0  0  0  0  0  0  0
    3.0210   60.9660   69.0380 C   0  0  0  0  0  0  0  0  0  0  0  0
    1.9660   61.4900   71.5260 O   0  0  0  0  0  0  0  0  0  0  0  0
    0.6120   68.8490   67.6530 S   0  0  0  0  0  0  0  0  0  0  0  0
    2.2510   69.1470   67.0050 C   0  0  0  0  0  0  0  0  0  0  0  0
    3.1990   69.8160   67.7800 C   0  0  0  0  0  0  0  0  0  0  0  0
    4.5060   70.0650   67.3180 C   0  0  0  0  0  0  0  0  0  0  0  0
    4.7830   69.6640   65.9870 C   0  0  0  0  0  0  0  0  0  0  0  0
    3.8510   68.9820   65.1630 C   0  0  0  0  0  0  0  0  0  0  0  0
    2.5760   68.7520   65.7080 C   0  0  0  0  0  0  0  0  0  0  0  0
    4.1910   68.5190   63.7240 C   0  0  0  0  0  0  0  0  0  0  0  0
    4.7870   67.0940   63.7420 C   0  0  0  0  0  0  0  0  0  0  0  0
    5.2400   69.4150   63.0130 C   0  0  0  0  0  0  0  0  0  0  0  0
    2.9320   68.5540   62.8290 C   0  0  0  0  0  0  0  0  0  0  0  0
    5.5300   70.7500   68.2570 C   0  0  0  0  0  0  0  0  0  0  0  0
    6.9630   70.1630   68.1200 C   0  0  0  0  0  0  0  0  0  0  0  0
    5.6920   72.2640   67.9790 C   0  0  0  0  0  0  0  0  0  0  0  0
    5.0900   70.5390   69.7200 C   0  0  0  0  0  0  0  0  0  0  0  0
    5.9940   69.9630   65.4260 O   0  0  0  0  0  0  0  0  0  0  0  0
    2.2355   65.5731   67.9317 H   0  0  0  0  0  0  0  0  0  0  0  0
    0.9109   65.6563   66.7212 H   0  0  0  0  0  0  0  0  0  0  0  0
    2.2072   66.8999   66.7212 H   0  0  0  0  0  0  0  0  0  0  0  0
   -0.9743   66.4334   69.4274 H   0  0  0  0  0  0  0  0  0  0  0  0
   -1.3562   67.2484   67.8729 H   0  0  0  0  0  0  0  0  0  0  0  0
   -0.7036   65.5749   67.8729 H   0  0  0  0  0  0  0  0  0  0  0  0
    2.9281   65.0673   68.8914 H   0  0  0  0  0  0  0  0  0  0  0  0
    0.1738   65.6190   72.1579 H   0  0  0  0  0  0  0  0  0  0  0  0
    0.8866   62.5844   75.2746 H   0  0  0  0  0  0  0  0  0  0  0  0
    1.0986   61.2606   74.0791 H   0  0  0  0  0  0  0  0  0  0  0  0
    2.2252   62.6598   74.0791 H   0  0  0  0  0  0  0  0  0  0  0  0
   -0.2680   64.0623   75.1245 H   0  0  0  0  0  0  0  0  0  0  0  0
    0.1412   65.1954   73.7921 H   0  0  0  0  0  0  0  0  0  0  0  0
   -1.4396   64.3425   73.7921 H   0  0  0  0  0  0  0  0  0  0  0  0
   -1.2976   61.6567   73.7553 H   0  0  0  0  0  0  0  0  0  0  0  0
   -1.6110   62.5902   72.2530 H   0  0  0  0  0  0  0  0  0  0  0  0
   -0.3912   61.2717   72.2530 H   0  0  0  0  0  0  0  0  0  0  0  0
    4.7253   62.2760   71.0945 H   0  0  0  0  0  0  0  0  0  0  0  0
    5.3626   61.3014   69.7268 H   0  0  0  0  0  0  0  0  0  0  0  0
    5.5613   63.0867   69.7268 H   0  0  0  0  0  0  0  0  0  0  0  0
    4.1708   64.0289   67.9627 H   0  0  0  0  0  0  0  0  0  0  0  0
    4.5019   62.3856   67.3172 H   0  0  0  0  0  0  0  0  0  0  0  0
    2.8250   63.0295   67.3172 H   0  0  0  0  0  0  0  0  0  0  0  0
    2.8426   60.4782   70.0076 H   0  0  0  0  0  0  0  0  0  0  0  0
    2.0800   61.0078   68.4699 H   0  0  0  0  0  0  0  0  0  0  0  0
    3.7670   60.3909   68.4699 H   0  0  0  0  0  0  0  0  0  0  0  0
    1.4683   61.1209   72.2981 H   0  0  0  0  0  0  0  0  0  0  0  0
    2.9161   70.1605   68.7856 H   0  0  0  0  0  0  0  0  0  0  0  0
    1.8147   68.2472   65.0952 H   0  0  0  0  0  0  0  0  0  0  0  0
    4.9238   66.7669   64.7833 H   0  0  0  0  0  0  0  0  0  0  0  0
    4.1022   66.4036   63.2278 H   0  0  0  0  0  0  0  0  0  0  0  0
    5.7594   67.0967   63.2278 H   0  0  0  0  0  0  0  0  0  0  0  0
    5.8491   69.9353   63.7669 H   0  0  0  0  0  0  0  0  0  0  0  0
    5.8905   68.7895   62.3841 H   0  0  0  0  0  0  0  0  0  0  0  0
    4.7239   70.1553   62.3841 H   0  0  0  0  0  0  0  0  0  0  0  0
    2.0327   68.5790   63.4620 H   0  0  0  0  0  0  0  0  0  0  0  0
    2.9584   69.4518   62.1939 H   0  0  0  0  0  0  0  0  0  0  0  0
    2.9085   67.6562   62.1939 H   0  0  0  0  0  0  0  0  0  0  0  0
    7.3856   69.9899   69.1207 H   0  0  0  0  0  0  0  0  0  0  0  0
    6.9182   69.2108   67.5712 H   0  0  0  0  0  0  0  0  0  0  0  0
    7.5991   70.8730   67.5712 H   0  0  0  0  0  0  0  0  0  0  0  0
    5.7502   72.8079   68.9334 H   0  0  0  0  0  0  0  0  0  0  0  0
    6.6135   72.4345   67.4030 H   0  0  0  0  0  0  0  0  0  0  0  0
    4.8274   72.6256   67.4030 H   0  0  0  0  0  0  0  0  0  0  0  0
    5.8725   70.9142   70.3960 H   0  0  0  0  0  0  0  0  0  0  0  0
    4.1535   71.0860   69.9038 H   0  0  0  0  0  0  0  0  0  0  0  0
    4.9302   69.4663   69.9038 H   0  0  0  0  0  0  0  0  0  0  0  0
    6.1913   69.6846   64.4966 H   0  0  0  0  0  0  0  0  0  0  0  0
  2  1  1  0
  3  2  1  0
  4  2  1  0
  5  4  1  0
  6  5  2  0
  7  6  1  0
  8  7  2  0
  9  8  1  0
 10  9  2  0
 10  5  1  0
 11  9  1  0
 12 11  1  0
 13 11  1  0
 14 11  1  0
 15  7  1  0
 16 15  1  0
 17 15  1  0
 18 15  1  0
 19  8  1  0
 20  2  1  0
 21 20  1  0
 22 21  2  0
 23 22  1  0
 24 23  2  0
 25 24  1  0
 26 25  2  0
 26 21  1  0
 27 25  1  0
 28 27  1  0
 29 27  1  0
 30 27  1  0
 31 23  1  0
 32 31  1  0
 33 31  1  0
 34 31  1  0
 35 24  1  0
  1 36  1  0
  1 37  1  0
  1 38  1  0
  3 39  1  0
  3 40  1  0
  3 41  1  0
  6 42  1  0
 10 43  1  0
 12 44  1  0
 12 45  1  0
 12 46  1  0
 13 47  1  0
 13 48  1  0
 13 49  1  0
 14 50  1  0
 14 51  1  0
 14 52  1  0
 16 53  1  0
 16 54  1  0
 16 55  1  0
 17 56  1  0
 17 57  1  0
 17 58  1  0
 18 59  1  0
 18 60  1  0
 18 61  1  0
 19 62  1  0
 22 63  1  0
 26 64  1  0
 28 65  1  0
 28 66  1  0
 28 67  1  0
 29 68  1  0
 29 69  1  0
 29 70  1  0
 30 71  1  0
 30 72  1  0
 30 73  1  0
 32 74  1  0
 32 75  1  0
 32 76  1  0
 33 77  1  0
 33 78  1  0
 33 79  1  0
 34 80  1  0
 34 81  1  0
 34 82  1  0
 35 83  1  0
M  END
>  <score>  (1) 
-9.036

$$$$
=
     RDKit          3D

 83 84  0  0  0  0  0  0  0  0999 V2000
    1.6720   66.2980   67.4630 C   0  0  0  0  0  0  0  0  0  0  0  0
    0.7630   67.1050   68.3990 C   0  0  0  0  0  0  0  0  0  0  0  0
   -0.6560   66.5150   68.3410 C   0  0  0  0  0  0  0  0  0  0  0  0
    1.2500   67.1340   70.1970 S   0  0  0  0  0  0  0  0  0  0  0  0
    1.4720   65.4090   70.5680 C   0  0  0  0  0  0  0  0  0  0  0  0
    2.3520   64.6310   69.8130 C   0  0  0  0  0  0  0  0  0  0  0  0
    2.5620   63.2710   70.0990 C   0  0  0  0  0  0  0  0  0  0  0  0
    1.8140   62.7290   71.1750 C   0  0  0  0  0  0  0  0  0  0  0  0
    0.9170   63.4820   71.9710 C   0  0  0  0  0  0  0  0  0  0  0  0
    0.7550   64.8330   71.6190 C   0  0  0  0  0  0  0  0  0  0  0  0
    0.1660   62.8910   73.1890 C   0  0  0  0  0  0  0  0  0  0  0  0
    1.0660   62.0280   74.1130 C   0  0  0  0  0  0  0  0  0  0  0  0
   -0.4060   64.0160   74.0800 C   0  0  0  0  0  0  0  0  0  0  0  0
   -0.9740   61.9620   72.7180 C   0  0  0  0  0  0  0  0  0  0  0  0
    3.5740   62.4380   69.2760 C   0  0  0  0  0  0  0  0  0  0  0  0
    4.9290   62.3480   70.0110 C   0  0  0  0  0  0  0  0  0  0  0  0
    3.7760   63.0590   67.8750 C   0  0  0  0  0  0  0  0  0  0  0  0
    3.1200   60.9740   69.0280 C   0  0  0  0  0  0  0  0  0  0  0  0
    1.9620   61.3980   71.4530 O   0  0  0  0  0  0  0  0  0  0  0  0
    0.6180   68.8650   67.7900 S   0  0  0  0  0  0  0  0  0  0  0  0
    2.2560   69.1770   67.1460 C   0  0  0  0  0  0  0  0  0  0  0  0
    2.5930   68.7600   65.8570 C   0  0  0  0  0  0  0  0  0  0  0  0
    3.8660   68.9920   65.3010 C   0  0  0  0  0  0  0  0  0  0  0  0
    4.8150   69.6060   66.1550 C   0  0  0  0  0  0  0  0  0  0  0  0
    4.5190   70.0460   67.4710 C   0  0  0  0  0  0  0  0  0  0  0  0
    3.2180   69.7970   67.9420 C   0  0  0  0  0  0  0  0  0  0  0  0
    5.5640   70.7510   68.3710 C   0  0  0  0  0  0  0  0  0  0  0  0
    5.6230   72.2610   68.0500 C   0  0  0  0  0  0  0  0  0  0  0  0
    7.0090   70.2150   68.1860 C   0  0  0  0  0  0  0  0  0  0  0  0
    5.2260   70.5410   69.8650 C   0  0  0  0  0  0  0  0  0  0  0  0
    4.1490   68.5660   63.8390 C   0  0  0  0  0  0  0  0  0  0  0  0
    2.8870   68.6370   62.9340 C   0  0  0  0  0  0  0  0  0  0  0  0
    5.1950   69.4640   63.1350 C   0  0  0  0  0  0  0  0  0  0  0  0
    4.6360   67.1020   63.8270 C   0  0  0  0  0  0  0  0  0  0  0  0
    6.1040   69.7720   65.7290 O   0  0  0  0  0  0  0  0  0  0  0  0
    2.3624   65.6850   68.0610 H   0  0  0  0  0  0  0  0  0  0  0  0
    1.0564   65.6435   66.8284 H   0  0  0  0  0  0  0  0  0  0  0  0
    2.2490   66.9868   66.8284 H   0  0  0  0  0  0  0  0  0  0  0  0
   -1.0304   66.3593   69.3635 H   0  0  0  0  0  0  0  0  0  0  0  0
   -1.3211   67.2112   67.8090 H   0  0  0  0  0  0  0  0  0  0  0  0
   -0.6315   65.5525   67.8090 H   0  0  0  0  0  0  0  0  0  0  0  0
    2.8937   65.0934   68.9746 H   0  0  0  0  0  0  0  0  0  0  0  0
    0.0450   65.4529   72.1861 H   0  0  0  0  0  0  0  0  0  0  0  0
    0.8330   62.2515   75.1645 H   0  0  0  0  0  0  0  0  0  0  0  0
    0.8799   60.9622   73.9147 H   0  0  0  0  0  0  0  0  0  0  0  0
    2.1231   62.2587   73.9147 H   0  0  0  0  0  0  0  0  0  0  0  0
   -0.2707   63.7498   75.1387 H   0  0  0  0  0  0  0  0  0  0  0  0
    0.1233   64.9567   73.8679 H   0  0  0  0  0  0  0  0  0  0  0  0
   -1.4779   64.1425   73.8679 H   0  0  0  0  0  0  0  0  0  0  0  0
   -1.4899   61.5416   73.5938 H   0  0  0  0  0  0  0  0  0  0  0  0
   -1.6895   62.5376   72.1123 H   0  0  0  0  0  0  0  0  0  0  0  0
   -0.5547   61.1451   72.1123 H   0  0  0  0  0  0  0  0  0  0  0  0
    4.7582   62.3593   71.0976 H   0  0  0  0  0  0  0  0  0  0  0  0
    5.4375   61.4141   69.7295 H   0  0  0  0  0  0  0  0  0  0  0  0
    5.5566   63.2064   69.7295 H   0  0  0  0  0  0  0  0  0  0  0  0
    4.1147   64.1002   67.9808 H   0  0  0  0  0  0  0  0  0  0  0  0
    4.5326   62.4815   67.3236 H   0  0  0  0  0  0  0  0  0  0  0  0
    2.8244   63.0372   67.3236 H   0  0  0  0  0  0  0  0  0  0  0  0
    2.9637   60.4701   69.9932 H   0  0  0  0  0  0  0  0  0  0  0  0
    2.1795   60.9734   68.4575 H   0  0  0  0  0  0  0  0  0  0  0  0
    3.8952   60.4414   68.4575 H   0  0  0  0  0  0  0  0  0  0  0  0
    1.4542   60.9884   72.1976 H   0  0  0  0  0  0  0  0  0  0  0  0
    1.8385   68.2322   65.2551 H   0  0  0  0  0  0  0  0  0  0  0  0
    2.9521   70.0994   68.9657 H   0  0  0  0  0  0  0  0  0  0  0  0
    5.6454   72.8347   68.9883 H   0  0  0  0  0  0  0  0  0  0  0  0
    6.5303   72.4767   67.4666 H   0  0  0  0  0  0  0  0  0  0  0  0
    4.7353   72.5468   67.4666 H   0  0  0  0  0  0  0  0  0  0  0  0
    7.4662   70.0454   69.1720 H   0  0  0  0  0  0  0  0  0  0  0  0
    6.9800   69.2678   67.6275 H   0  0  0  0  0  0  0  0  0  0  0  0
    7.6047   70.9520   67.6275 H   0  0  0  0  0  0  0  0  0  0  0  0
    5.9971   71.0201   70.4862 H   0  0  0  0  0  0  0  0  0  0  0  0
    4.2462   70.9897   70.0859 H   0  0  0  0  0  0  0  0  0  0  0  0
    5.1942   69.4639   70.0859 H   0  0  0  0  0  0  0  0  0  0  0  0
    1.9866   68.6877   63.5638 H   0  0  0  0  0  0  0  0  0  0  0  0
    2.9412   69.5335   62.2989 H   0  0  0  0  0  0  0  0  0  0  0  0
    2.8403   67.7401   62.2989 H   0  0  0  0  0  0  0  0  0  0  0  0
    5.8006   69.9839   63.8919 H   0  0  0  0  0  0  0  0  0  0  0  0
    5.8489   68.8416   62.5064 H   0  0  0  0  0  0  0  0  0  0  0  0
    4.6788   70.2046   62.5064 H   0  0  0  0  0  0  0  0  0  0  0  0
    4.7543   66.7464   64.8612 H   0  0  0  0  0  0  0  0  0  0  0  0
    3.8982   66.4744   63.3056 H   0  0  0  0  0  0  0  0  0  0  0  0
    5.6027   67.0414   63.3056 H   0  0  0  0  0  0  0  0  0  0  0  0
    6.7702   70.2006   66.3227 H   0  0  0  0  0  0  0  0  0  0  0  0
  2  1  1  0
  3  2  1  0
  4  2  1  0
  5  4  1  0
  6  5  2  0
  7  6  1  0
  8  7  2  0
  9  8  1  0
 10  9  2  0
 10  5  1  0
 11  9  1  0
 12 11  1  0
 13 11  1  0
 14 11  1  0
 15  7  1  0
 16 15  1  0
 17 15  1  0
 18 15  1  0
 19  8  1  0
 20  2  1  0
 21 20  1  0
 22 21  2  0
 23 22  1  0
 24 23  2  0
 25 24  1  0
 26 25  2  0
 26 21  1  0
 27 25  1  0
 28 27  1  0
 29 27  1  0
 30 27  1  0
 31 23  1  0
 32 31  1  0
 33 31  1  0
 34 31  1  0
 35 24  1  0
  1 36  1  0
  1 37  1  0
  1 38  1  0
  3 39  1  0
  3 40  1  0
  3 41  1  0
  6 42  1  0
 10 43  1  0
 12 44  1  0
 12 45  1  0
 12 46  1  0
 13 47  1  0
 13 48  1  0
 13 49  1  0
 14 50  1  0
 14 51  1  0
 14 52  1  0
 16 53  1  0
 16 54  1  0
 16 55  1  0
 17 56  1  0
 17 57  1  0
 17 58  1  0
 18 59  1  0
 18 60  1  0
 18 61  1  0
 19 62  1  0
 22 63  1  0
 26 64  1  0
 28 65  1  0
 28 66  1  0
 28 67  1  0
 29 68  1  0
 29 69  1  0
 29 70  1  0
 30 71  1  0
 30 72  1  0
 30 73  1  0
 32 74  1  0
 32 75  1  0
 32 76  1  0
 33 77  1  0
 33 78  1  0
 33 79  1  0
 34 80  1  0
 34 81  1  0
 34 82  1  0
 35 83  1  0
M  END
>  <score>  (2) 
-8.926

$$$$
=
     RDKit          3D

 83 84  0  0  0  0  0  0  0  0999 V2000
    0.9110   62.0330   75.5450 C   0  0  0  0  0  0  0  0  0  0  0  0
   -0.3270   62.7120   74.9450 C   0  0  0  0  0  0  0  0  0  0  0  0
    0.0000   64.1910   74.6820 C   0  0  0  0  0  0  0  0  0  0  0  0
   -0.9510   62.0140   73.3340 S   0  0  0  0  0  0  0  0  0  0  0  0
    0.5500   61.5310   72.5110 C   0  0  0  0  0  0  0  0  0  0  0  0
    1.2330   62.4370   71.6970 C   0  0  0  0  0  0  0  0  0  0  0  0
    2.4320   62.0870   71.0530 C   0  0  0  0  0  0  0  0  0  0  0  0
    2.8940   60.7620   71.2550 C   0  0  0  0  0  0  0  0  0  0  0  0
    2.2380   59.8130   72.0770 C   0  0  0  0  0  0  0  0  0  0  0  0
    1.0410   60.2350   72.6810 C   0  0  0  0  0  0  0  0  0  0  0  0
    2.7970   58.3950   72.3440 C   0  0  0  0  0  0  0  0  0  0  0  0
    1.7440   57.4130   72.9240 C   0  0  0  0  0  0  0  0  0  0  0  0
    3.3080   57.7510   71.0370 C   0  0  0  0  0  0  0  0  0  0  0  0
    3.9380   58.4540   73.3830 C   0  0  0  0  0  0  0  0  0  0  0  0
    3.1960   63.1210   70.1890 C   0  0  0  0  0  0  0  0  0  0  0  0
    2.5100   64.5020   70.2630 C   0  0  0  0  0  0  0  0  0  0  0  0
    3.2720   62.6490   68.7200 C   0  0  0  0  0  0  0  0  0  0  0  0
    4.6640   63.3440   70.6400 C   0  0  0  0  0  0  0  0  0  0  0  0
    4.0350   60.3750   70.6080 O   0  0  0  0  0  0  0  0  0  0  0  0
   -1.7250   62.7020   76.1830 S   0  0  0  0  0  0  0  0  0  0  0  0
   -2.4380   61.0810   75.9330 C   0  0  0  0  0  0  0  0  0  0  0  0
   -3.8000   60.9510   75.6550 C   0  0  0  0  0  0  0  0  0  0  0  0
   -4.4050   59.6980   75.4400 C   0  0  0  0  0  0  0  0  0  0  0  0
   -3.5680   58.5660   75.5980 C   0  0  0  0  0  0  0  0  0  0  0  0
   -2.1800   58.6500   75.8820 C   0  0  0  0  0  0  0  0  0  0  0  0
   -1.6480   59.9390   76.0590 C   0  0  0  0  0  0  0  0  0  0  0  0
   -1.2760   57.3990   76.0100 C   0  0  0  0  0  0  0  0  0  0  0  0
    0.1970   57.8140   76.2230 C   0  0  0  0  0  0  0  0  0  0  0  0
   -1.2890   56.4890   74.7520 C   0  0  0  0  0  0  0  0  0  0  0  0
   -1.7470   56.5050   77.1790 C   0  0  0  0  0  0  0  0  0  0  0  0
   -5.9070   59.6300   75.0660 C   0  0  0  0  0  0  0  0  0  0  0  0
   -6.2220   58.5130   74.0310 C   0  0  0  0  0  0  0  0  0  0  0  0
   -6.8220   59.3220   76.2750 C   0  0  0  0  0  0  0  0  0  0  0  0
   -6.3270   60.9710   74.4290 C   0  0  0  0  0  0  0  0  0  0  0  0
   -4.1000   57.3090   75.5110 O   0  0  0  0  0  0  0  0  0  0  0  0
    0.8513   62.0658   76.6429 H   0  0  0  0  0  0  0  0  0  0  0  0
    0.9528   60.9857   75.2112 H   0  0  0  0  0  0  0  0  0  0  0  0
    1.8166   62.5607   75.2112 H   0  0  0  0  0  0  0  0  0  0  0  0
    0.1163   64.7170   75.6411 H   0  0  0  0  0  0  0  0  0  0  0  0
    0.9358   64.2632   74.1084 H   0  0  0  0  0  0  0  0  0  0  0  0
   -0.8181   64.6510   74.1084 H   0  0  0  0  0  0  0  0  0  0  0  0
    0.8230   63.4480   71.5566 H   0  0  0  0  0  0  0  0  0  0  0  0
    0.4763   59.5257   73.3039 H   0  0  0  0  0  0  0  0  0  0  0  0
    1.7787   57.4453   74.0230 H   0  0  0  0  0  0  0  0  0  0  0  0
    0.7410   57.7057   72.5800 H   0  0  0  0  0  0  0  0  0  0  0  0
    1.9661   56.3921   72.5800 H   0  0  0  0  0  0  0  0  0  0  0  0
    3.9750   56.9104   71.2788 H   0  0  0  0  0  0  0  0  0  0  0  0
    2.4530   57.3836   70.4505 H   0  0  0  0  0  0  0  0  0  0  0  0
    3.8601   58.5002   70.4505 H   0  0  0  0  0  0  0  0  0  0  0  0
    3.5121   58.4320   74.3970 H   0  0  0  0  0  0  0  0  0  0  0  0
    4.6037   57.5891   73.2461 H   0  0  0  0  0  0  0  0  0  0  0  0
    4.5109   59.3830   73.2461 H   0  0  0  0  0  0  0  0  0  0  0  0
    2.3692   64.7855   71.3165 H   0  0  0  0  0  0  0  0  0  0  0  0
    3.1404   65.2518   69.7626 H   0  0  0  0  0  0  0  0  0  0  0  0
    1.5316   64.4527   69.7626 H   0  0  0  0  0  0  0  0  0  0  0  0
    3.4468   61.5633   68.6923 H   0  0  0  0  0  0  0  0  0  0  0  0
    2.3249   62.8810   68.2109 H   0  0  0  0  0  0  0  0  0  0  0  0
    4.0984   63.1666   68.2109 H   0  0  0  0  0  0  0  0  0  0  0  0
    4.7129   63.3514   71.7389 H   0  0  0  0  0  0  0  0  0  0  0  0
    5.2947   62.5314   70.2504 H   0  0  0  0  0  0  0  0  0  0  0  0
    5.0250   64.3073   70.2504 H   0  0  0  0  0  0  0  0  0  0  0  0
    4.3845   59.4565   70.7275 H   0  0  0  0  0  0  0  0  0  0  0  0
   -4.4209   61.8575   75.6022 H   0  0  0  0  0  0  0  0  0  0  0  0
   -0.5812   60.0496   76.3032 H   0  0  0  0  0  0  0  0  0  0  0  0
    0.4089   57.8737   77.3007 H   0  0  0  0  0  0  0  0  0  0  0  0
    0.8589   57.0674   75.7600 H   0  0  0  0  0  0  0  0  0  0  0  0
    0.3718   58.7964   75.7600 H   0  0  0  0  0  0  0  0  0  0  0  0
   -1.3041   55.4339   75.0628 H   0  0  0  0  0  0  0  0  0  0  0  0
   -2.1841   56.7070   74.1510 H   0  0  0  0  0  0  0  0  0  0  0  0
   -0.3880   56.6814   74.1510 H   0  0  0  0  0  0  0  0  0  0  0  0
   -1.4931   56.9870   78.1346 H   0  0  0  0  0  0  0  0  0  0  0  0
   -2.8362   56.3644   77.1173 H   0  0  0  0  0  0  0  0  0  0  0  0
   -1.2470   55.5271   77.1173 H   0  0  0  0  0  0  0  0  0  0  0  0
   -6.4836   57.5853   74.5610 H   0  0  0  0  0  0  0  0  0  0  0  0
   -7.0670   58.8256   73.3999 H   0  0  0  0  0  0  0  0  0  0  0  0
   -5.3382   58.3380   73.3999 H   0  0  0  0  0  0  0  0  0  0  0  0
   -6.2708   59.5075   77.2087 H   0  0  0  0  0  0  0  0  0  0  0  0
   -7.7094   59.9710   76.2379 H   0  0  0  0  0  0  0  0  0  0  0  0
   -7.1363   58.2685   76.2379 H   0  0  0  0  0  0  0  0  0  0  0  0
   -6.5548   61.6983   75.2222 H   0  0  0  0  0  0  0  0  0  0  0  0
   -5.5057   61.3538   73.8053 H   0  0  0  0  0  0  0  0  0  0  0  0
   -7.2199   60.8169   73.8053 H   0  0  0  0  0  0  0  0  0  0  0  0
   -3.5174   56.5162   75.6210 H   0  0  0  0  0  0  0  0  0  0  0  0
  2  1  1  0
  3  2  1  0
  4  2  1  0
  5  4  1  0
  6  5  2  0
  7  6  1  0
  8  7  2  0
  9  8  1  0
 10  9  2  0
 10  5  1  0
 11  9  1  0
 12 11  1  0
 13 11  1  0
 14 11  1  0
 15  7  1  0
 16 15  1  0
 17 15  1  0
 18 15  1  0
 19  8  1  0
 20  2  1  0
 21 20  1  0
 22 21  2  0
 23 22  1  0
 24 23  2  0
 25 24  1  0
 26 25  2  0
 26 21  1  0
 27 25  1  0
 28 27  1  0
 29 27  1  0
 30 27  1  0
 31 23  1  0
 32 31  1  0
 33 31  1  0
 34 31  1  0
 35 24  1  0
  1 36  1  0
  1 37  1  0
  1 38  1  0
  3 39  1  0
  3 40  1  0
  3 41  1  0
  6 42  1  0
 10 43  1  0
 12 44  1  0
 12 45  1  0
 12 46  1  0
 13 47  1  0
 13 48  1  0
 13 49  1  0
 14 50  1  0
 14 51  1  0
 14 52  1  0
 16 53  1  0
 16 54  1  0
 16 55  1  0
 17 56  1  0
 17 57  1  0
 17 58  1  0
 18 59  1  0
 18 60  1  0
 18 61  1  0
 19 62  1  0
 22 63  1  0
 26 64  1  0
 28 65  1  0
 28 66  1  0
 28 67  1  0
 29 68  1  0
 29 69  1  0
 29 70  1  0
 30 71  1  0
 30 72  1  0
 30 73  1  0
 32 74  1  0
 32 75  1  0
 32 76  1  0
 33 77  1  0
 33 78  1  0
 33 79  1  0
 34 80  1  0
 34 81  1  0
 34 82  1  0
 35 83  1  0
M  END
>  <score>  (3) 
-8.326

$$$$
=
     RDKit          3D

 83 84  0  0  0  0  0  0  0  0999 V2000
    0.5230   61.6100   75.6470 C   0  0  0  0  0  0  0  0  0  0  0  0
   -0.6120   62.3930   74.9760 C   0  0  0  0  0  0  0  0  0  0  0  0
   -0.1960   63.8690   74.8640 C   0  0  0  0  0  0  0  0  0  0  0  0
   -1.0880   61.8470   73.2590 S   0  0  0  0  0  0  0  0  0  0  0  0
    0.4780   61.3960   72.5460 C   0  0  0  0  0  0  0  0  0  0  0  0
    1.0060   60.1200   72.7490 C   0  0  0  0  0  0  0  0  0  0  0  0
    2.2310   59.7320   72.1800 C   0  0  0  0  0  0  0  0  0  0  0  0
    2.9100   60.7120   71.4120 C   0  0  0  0  0  0  0  0  0  0  0  0
    2.4080   62.0160   71.1750 C   0  0  0  0  0  0  0  0  0  0  0  0
    1.1820   62.3310   71.7830 C   0  0  0  0  0  0  0  0  0  0  0  0
    3.1280   63.0470   70.2730 C   0  0  0  0  0  0  0  0  0  0  0  0
    4.5910   63.3330   70.7030 C   0  0  0  0  0  0  0  0  0  0  0  0
    3.2020   62.5450   68.8150 C   0  0  0  0  0  0  0  0  0  0  0  0
    2.3970   64.4080   70.3240 C   0  0  0  0  0  0  0  0  0  0  0  0
    2.7770   58.2970   72.3820 C   0  0  0  0  0  0  0  0  0  0  0  0
    3.8680   58.2800   73.4740 C   0  0  0  0  0  0  0  0  0  0  0  0
    3.3490   57.7430   71.0580 C   0  0  0  0  0  0  0  0  0  0  0  0
    1.6970   57.2800   72.8360 C   0  0  0  0  0  0  0  0  0  0  0  0
    4.1250   60.3820   70.8790 O   0  0  0  0  0  0  0  0  0  0  0  0
   -2.1350   62.3650   76.0560 S   0  0  0  0  0  0  0  0  0  0  0  0
   -2.7450   60.7030   75.8040 C   0  0  0  0  0  0  0  0  0  0  0  0
   -4.0860   60.4900   75.4840 C   0  0  0  0  0  0  0  0  0  0  0  0
   -4.6110   59.2010   75.2660 C   0  0  0  0  0  0  0  0  0  0  0  0
   -3.7150   58.1220   75.4650 C   0  0  0  0  0  0  0  0  0  0  0  0
   -2.3440   58.2900   75.7920 C   0  0  0  0  0  0  0  0  0  0  0  0
   -1.8940   59.6100   75.9690 C   0  0  0  0  0  0  0  0  0  0  0  0
   -1.3740   57.0950   75.9660 C   0  0  0  0  0  0  0  0  0  0  0  0
   -1.4180   56.1770   74.7240 C   0  0  0  0  0  0  0  0  0  0  0  0
   -1.7120   56.1900   77.1810 C   0  0  0  0  0  0  0  0  0  0  0  0
    0.0690   57.5950   76.2040 C   0  0  0  0  0  0  0  0  0  0  0  0
   -6.0930   59.0420   74.8440 C   0  0  0  0  0  0  0  0  0  0  0  0
   -6.6440   60.2860   74.0920 C   0  0  0  0  0  0  0  0  0  0  0  0
   -6.3270   57.8560   73.8770 C   0  0  0  0  0  0  0  0  0  0  0  0
   -6.9580   58.8550   76.1080 C   0  0  0  0  0  0  0  0  0  0  0  0
   -4.1700   56.8360   75.3770 O   0  0  0  0  0  0  0  0  0  0  0  0
    0.4208   61.6805   76.7400 H   0  0  0  0  0  0  0  0  0  0  0  0
    0.4711   60.5546   75.3412 H   0  0  0  0  0  0  0  0  0  0  0  0
    1.4912   62.0332   75.3412 H   0  0  0  0  0  0  0  0  0  0  0  0
   -0.0763   64.2937   75.8716 H   0  0  0  0  0  0  0  0  0  0  0  0
    0.7574   63.9410   74.3201 H   0  0  0  0  0  0  0  0  0  0  0  0
   -0.9715   64.4283   74.3201 H   0  0  0  0  0  0  0  0  0  0  0  0
    0.4502   59.4012   73.3690 H   0  0  0  0  0  0  0  0  0  0  0  0
    0.7648   63.3408   71.6551 H   0  0  0  0  0  0  0  0  0  0  0  0
    4.6547   63.3454   71.8011 H   0  0  0  0  0  0  0  0  0  0  0  0
    5.2501   62.5467   70.3064 H   0  0  0  0  0  0  0  0  0  0  0  0
    4.9055   64.3096   70.3064 H   0  0  0  0  0  0  0  0  0  0  0  0
    3.3624   61.4568   68.8096 H   0  0  0  0  0  0  0  0  0  0  0  0
    2.2596   62.7793   68.2983 H   0  0  0  0  0  0  0  0  0  0  0  0
    4.0367   63.0412   68.2983 H   0  0  0  0  0  0  0  0  0  0  0  0
    2.2398   64.7007   71.3726 H   0  0  0  0  0  0  0  0  0  0  0  0
    3.0067   65.1709   69.8178 H   0  0  0  0  0  0  0  0  0  0  0  0
    1.4243   64.3209   69.8178 H   0  0  0  0  0  0  0  0  0  0  0  0
    3.3936   58.2874   74.4664 H   0  0  0  0  0  0  0  0  0  0  0  0
    4.4799   57.3722   73.3669 H   0  0  0  0  0  0  0  0  0  0  0  0
    4.5079   59.1683   73.3669 H   0  0  0  0  0  0  0  0  0  0  0  0
    4.1231   56.9932   71.2783 H   0  0  0  0  0  0  0  0  0  0  0  0
    2.5407   57.2755   70.4765 H   0  0  0  0  0  0  0  0  0  0  0  0
    3.7904   58.5658   70.4765 H   0  0  0  0  0  0  0  0  0  0  0  0
    1.6627   57.2477   73.9350 H   0  0  0  0  0  0  0  0  0  0  0  0
    0.7155   57.5895   72.4475 H   0  0  0  0  0  0  0  0  0  0  0  0
    1.9470   56.2817   72.4475 H   0  0  0  0  0  0  0  0  0  0  0  0
    4.6244   61.0438   70.3380 H   0  0  0  0  0  0  0  0  0  0  0  0
   -4.7563   61.3580   75.3990 H   0  0  0  0  0  0  0  0  0  0  0  0
   -0.8437   59.7856   76.2447 H   0  0  0  0  0  0  0  0  0  0  0  0
   -1.4684   55.1264   75.0462 H   0  0  0  0  0  0  0  0  0  0  0  0
   -2.3056   56.4185   74.1208 H   0  0  0  0  0  0  0  0  0  0  0  0
   -0.5114   56.3325   74.1208 H   0  0  0  0  0  0  0  0  0  0  0  0
   -1.5078   56.7367   78.1134 H   0  0  0  0  0  0  0  0  0  0  0  0
   -2.7752   55.9102   77.1453 H   0  0  0  0  0  0  0  0  0  0  0  0
   -1.0925   55.2818   77.1453 H   0  0  0  0  0  0  0  0  0  0  0  0
    0.2604   57.6613   77.2852 H   0  0  0  0  0  0  0  0  0  0  0  0
    0.7808   56.8911   75.7481 H   0  0  0  0  0  0  0  0  0  0  0  0
    0.1927   58.5884   75.7481 H   0  0  0  0  0  0  0  0  0  0  0  0
   -6.9771   61.0381   74.8223 H   0  0  0  0  0  0  0  0  0  0  0  0
   -5.8512   60.7138   73.4608 H   0  0  0  0  0  0  0  0  0  0  0  0
   -7.4936   59.9863   73.4608 H   0  0  0  0  0  0  0  0  0  0  0  0
   -6.5078   56.9395   74.4578 H   0  0  0  0  0  0  0  0  0  0  0  0
   -7.2009   58.0667   73.2430 H   0  0  0  0  0  0  0  0  0  0  0  0
   -5.4386   57.7190   73.2430 H   0  0  0  0  0  0  0  0  0  0  0  0
   -6.3332   58.9901   77.0032 H   0  0  0  0  0  0  0  0  0  0  0  0
   -7.7685   59.5987   76.1110 H   0  0  0  0  0  0  0  0  0  0  0  0
   -7.3890   57.8429   76.1110 H   0  0  0  0  0  0  0  0  0  0  0  0
   -3.5464   56.0797   75.5155 H   0  0  0  0  0  0  0  0  0  0  0  0
  2  1  1  0
  3  2  1  0
  4  2  1  0
  5  4  1  0
  6  5  2  0
  7  6  1  0
  8  7  2  0
  9  8  1  0
 10  9  2  0
 10  5  1  0
 11  9  1  0
 12 11  1  0
 13 11  1  0
 14 11  1  0
 15  7  1  0
 16 15  1  0
 17 15  1  0
 18 15  1  0
 19  8  1  0
 20  2  1  0
 21 20  1  0
 22 21  2  0
 23 22  1  0
 24 23  2  0
 25 24  1  0
 26 25  2  0
 26 21  1  0
 27 25  1  0
 28 27  1  0
 29 27  1  0
 30 27  1  0
 31 23  1  0
 32 31  1  0
 33 31  1  0
 34 31  1  0
 35 24  1  0
  1 36  1  0
  1 37  1  0
  1 38  1  0
  3 39  1  0
  3 40  1  0
  3 41  1  0
  6 42  1  0
 10 43  1  0
 12 44  1  0
 12 45  1  0
 12 46  1  0
 13 47  1  0
 13 48  1  0
 13 49  1  0
 14 50  1  0
 14 51  1  0
 14 52  1  0
 16 53  1  0
 16 54  1  0
 16 55  1  0
 17 56  1  0
 17 57  1  0
 17 58  1  0
 18 59  1  0
 18 60  1  0
 18 61  1  0
 19 62  1  0
 22 63  1  0
 26 64  1  0
 28 65  1  0
 28 66  1  0
 28 67  1  0
 29 68  1  0
 29 69  1  0
 29 70  1  0
 30 71  1  0
 30 72  1  0
 30 73  1  0
 32 74  1  0
 32 75  1  0
 32 76  1  0
 33 77  1  0
 33 78  1  0
 33 79  1  0
 34 80  1  0
 34 81  1  0
 34 82  1  0
 35 83  1  0
M  END
>  <score>  (4) 
-8.296

$$$$
=
     RDKit          3D

 83 84  0  0  0  0  0  0  0  0999 V2000
    0.8510   62.0210   75.5510 C   0  0  0  0  0  0  0  0  0  0  0  0
   -0.3510   62.7290   74.9140 C   0  0  0  0  0  0  0  0  0  0  0  0
    0.0320   64.1900   74.6230 C   0  0  0  0  0  0  0  0  0  0  0  0
   -0.9720   62.0170   73.3080 S   0  0  0  0  0  0  0  0  0  0  0  0
    0.5310   61.5210   72.4950 C   0  0  0  0  0  0  0  0  0  0  0  0
    1.2220   62.4190   71.6800 C   0  0  0  0  0  0  0  0  0  0  0  0
    2.4220   62.0590   71.0430 C   0  0  0  0  0  0  0  0  0  0  0  0
    2.8760   60.7330   71.2530 C   0  0  0  0  0  0  0  0  0  0  0  0
    2.2110   59.7920   72.0770 C   0  0  0  0  0  0  0  0  0  0  0  0
    1.0130   60.2230   72.6730 C   0  0  0  0  0  0  0  0  0  0  0  0
    2.7600   58.3720   72.3540 C   0  0  0  0  0  0  0  0  0  0  0  0
    1.6950   57.3930   72.9140 C   0  0  0  0  0  0  0  0  0  0  0  0
    3.2930   57.7260   71.0570 C   0  0  0  0  0  0  0  0  0  0  0  0
    3.8830   58.4270   73.4140 C   0  0  0  0  0  0  0  0  0  0  0  0
    3.1960   63.0850   70.1780 C   0  0  0  0  0  0  0  0  0  0  0  0
    2.5190   64.4710   70.2440 C   0  0  0  0  0  0  0  0  0  0  0  0
    3.2740   62.6060   68.7100 C   0  0  0  0  0  0  0  0  0  0  0  0
    4.6640   63.2990   70.6320 C   0  0  0  0  0  0  0  0  0  0  0  0
    4.0180   60.3360   70.6140 O   0  0  0  0  0  0  0  0  0  0  0  0
   -1.7700   62.7970   76.1270 S   0  0  0  0  0  0  0  0  0  0  0  0
   -2.4970   61.1740   75.9470 C   0  0  0  0  0  0  0  0  0  0  0  0
   -1.7000   60.0330   76.0560 C   0  0  0  0  0  0  0  0  0  0  0  0
   -2.2280   58.7340   75.9330 C   0  0  0  0  0  0  0  0  0  0  0  0
   -3.6060   58.6490   75.6140 C   0  0  0  0  0  0  0  0  0  0  0  0
   -4.4540   59.7800   75.4930 C   0  0  0  0  0  0  0  0  0  0  0  0
   -3.8540   61.0410   75.6530 C   0  0  0  0  0  0  0  0  0  0  0  0
   -5.9670   59.6600   75.1830 C   0  0  0  0  0  0  0  0  0  0  0  0
   -6.7290   59.1140   76.4110 C   0  0  0  0  0  0  0  0  0  0  0  0
   -6.2880   58.6910   74.0130 C   0  0  0  0  0  0  0  0  0  0  0  0
   -6.5480   61.0300   74.7650 C   0  0  0  0  0  0  0  0  0  0  0  0
   -1.2990   57.5100   76.1360 C   0  0  0  0  0  0  0  0  0  0  0  0
   -1.3030   56.5400   74.9210 C   0  0  0  0  0  0  0  0  0  0  0  0
    0.1870   57.9000   76.3300 C   0  0  0  0  0  0  0  0  0  0  0  0
   -1.7850   56.7080   77.3610 C   0  0  0  0  0  0  0  0  0  0  0  0
   -4.1730   57.4280   75.3740 O   0  0  0  0  0  0  0  0  0  0  0  0
    0.7672   62.0704   76.6467 H   0  0  0  0  0  0  0  0  0  0  0  0
    0.8682   60.9685   75.2316 H   0  0  0  0  0  0  0  0  0  0  0  0
    1.7798   62.5163   75.2316 H   0  0  0  0  0  0  0  0  0  0  0  0
    0.1731   64.7281   75.5720 H   0  0  0  0  0  0  0  0  0  0  0  0
    0.9672   64.2156   74.0444 H   0  0  0  0  0  0  0  0  0  0  0  0
   -0.7704   64.6711   74.0444 H   0  0  0  0  0  0  0  0  0  0  0  0
    0.8182   63.4316   71.5329 H   0  0  0  0  0  0  0  0  0  0  0  0
    0.4407   59.5195   73.2955 H   0  0  0  0  0  0  0  0  0  0  0  0
    1.7189   57.4150   74.0135 H   0  0  0  0  0  0  0  0  0  0  0  0
    0.6976   57.6961   72.5628 H   0  0  0  0  0  0  0  0  0  0  0  0
    1.9133   56.3737   72.5628 H   0  0  0  0  0  0  0  0  0  0  0  0
    3.9741   56.9006   71.3116 H   0  0  0  0  0  0  0  0  0  0  0  0
    2.4496   57.3370   70.4677 H   0  0  0  0  0  0  0  0  0  0  0  0
    3.8351   58.4802   70.4677 H   0  0  0  0  0  0  0  0  0  0  0  0
    3.4389   58.4052   74.4201 H   0  0  0  0  0  0  0  0  0  0  0  0
    4.5487   57.5604   73.2882 H   0  0  0  0  0  0  0  0  0  0  0  0
    4.4608   59.3545   73.2882 H   0  0  0  0  0  0  0  0  0  0  0  0
    2.3777   64.7603   71.2958 H   0  0  0  0  0  0  0  0  0  0  0  0
    3.1555   65.2143   69.7416 H   0  0  0  0  0  0  0  0  0  0  0  0
    1.5415   64.4259   69.7416 H   0  0  0  0  0  0  0  0  0  0  0  0
    3.4508   61.5205   68.6874 H   0  0  0  0  0  0  0  0  0  0  0  0
    2.3269   62.8340   68.1991 H   0  0  0  0  0  0  0  0  0  0  0  0
    4.0998   63.1227   68.1991 H   0  0  0  0  0  0  0  0  0  0  0  0
    4.7106   63.3058   71.7310 H   0  0  0  0  0  0  0  0  0  0  0  0
    5.2907   62.4827   70.2435 H   0  0  0  0  0  0  0  0  0  0  0  0
    5.0315   64.2602   70.2435 H   0  0  0  0  0  0  0  0  0  0  0  0
    4.3614   59.4160   70.7399 H   0  0  0  0  0  0  0  0  0  0  0  0
   -0.6229   60.1532   76.2444 H   0  0  0  0  0  0  0  0  0  0  0  0
   -4.4701   61.9457   75.5436 H   0  0  0  0  0  0  0  0  0  0  0  0
   -6.2398   59.4646   77.3317 H   0  0  0  0  0  0  0  0  0  0  0  0
   -7.7680   59.4744   76.3878 H   0  0  0  0  0  0  0  0  0  0  0  0
   -6.7218   58.0143   76.3878 H   0  0  0  0  0  0  0  0  0  0  0  0
   -6.6095   57.7203   74.4185 H   0  0  0  0  0  0  0  0  0  0  0  0
   -7.0935   59.1155   73.3958 H   0  0  0  0  0  0  0  0  0  0  0  0
   -5.3883   58.5507   73.3958 H   0  0  0  0  0  0  0  0  0  0  0  0
   -6.7953   61.6132   75.6643 H   0  0  0  0  0  0  0  0  0  0  0  0
   -5.8042   61.5766   74.1666 H   0  0  0  0  0  0  0  0  0  0  0  0
   -7.4579   60.8752   74.1666 H   0  0  0  0  0  0  0  0  0  0  0  0
   -1.3073   55.5008   75.2815 H   0  0  0  0  0  0  0  0  0  0  0  0
   -2.2004   56.7202   74.3109 H   0  0  0  0  0  0  0  0  0  0  0  0
   -0.4041   56.7128   74.3109 H   0  0  0  0  0  0  0  0  0  0  0  0
    0.4132   57.9594   77.4049 H   0  0  0  0  0  0  0  0  0  0  0  0
    0.8297   57.1401   75.8615 H   0  0  0  0  0  0  0  0  0  0  0  0
    0.3737   58.8776   75.8615 H   0  0  0  0  0  0  0  0  0  0  0  0
   -1.4737   57.2217   78.2826 H   0  0  0  0  0  0  0  0  0  0  0  0
   -2.8820   56.6307   77.3369 H   0  0  0  0  0  0  0  0  0  0  0  0
   -1.3458   55.6998   77.3369 H   0  0  0  0  0  0  0  0  0  0  0  0
   -5.1354   57.3644   75.1508 H   0  0  0  0  0  0  0  0  0  0  0  0
  2  1  1  0
  3  2  1  0
  4  2  1  0
  5  4  1  0
  6  5  2  0
  7  6  1  0
  8  7  2  0
  9  8  1  0
 10  9  2  0
 10  5  1  0
 11  9  1  0
 12 11  1  0
 13 11  1  0
 14 11  1  0
 15  7  1  0
 16 15  1  0
 17 15  1  0
 18 15  1  0
 19  8  1  0
 20  2  1  0
 21 20  1  0
 22 21  2  0
 23 22  1  0
 24 23  2  0
 25 24  1  0
 26 25  2  0
 26 21  1  0
 27 25  1  0
 28 27  1  0
 29 27  1  0
 30 27  1  0
 31 23  1  0
 32 31  1  0
 33 31  1  0
 34 31  1  0
 35 24  1  0
  1 36  1  0
  1 37  1  0
  1 38  1  0
  3 39  1  0
  3 40  1  0
  3 41  1  0
  6 42  1  0
 10 43  1  0
 12 44  1  0
 12 45  1  0
 12 46  1  0
 13 47  1  0
 13 48  1  0
 13 49  1  0
 14 50  1  0
 14 51  1  0
 14 52  1  0
 16 53  1  0
 16 54  1  0
 16 55  1  0
 17 56  1  0
 17 57  1  0
 17 58  1  0
 18 59  1  0
 18 60  1  0
 18 61  1  0
 19 62  1  0
 22 63  1  0
 26 64  1  0
 28 65  1  0
 28 66  1  0
 28 67  1  0
 29 68  1  0
 29 69  1  0
 29 70  1  0
 30 71  1  0
 30 72  1  0
 30 73  1  0
 32 74  1  0
 32 75  1  0
 32 76  1  0
 33 77  1  0
 33 78  1  0
 33 79  1  0
 34 80  1  0
 34 81  1  0
 34 82  1  0
 35 83  1  0
M  END
>  <score>  (5) 
-8.208

$$$$
=
     RDKit          3D

 83 84  0  0  0  0  0  0  0  0999 V2000
   -0.2750   64.2500   75.1090 C   0  0  0  0  0  0  0  0  0  0  0  0
   -0.2960   62.7170   75.1560 C   0  0  0  0  0  0  0  0  0  0  0  0
    1.1510   62.2070   75.2600 C   0  0  0  0  0  0  0  0  0  0  0  0
   -1.2300   61.9470   76.5720 S   0  0  0  0  0  0  0  0  0  0  0  0
   -2.9210   62.3430   76.1830 C   0  0  0  0  0  0  0  0  0  0  0  0
   -3.3770   63.6600   76.2710 C   0  0  0  0  0  0  0  0  0  0  0  0
   -4.7020   64.0020   75.9490 C   0  0  0  0  0  0  0  0  0  0  0  0
   -5.5510   62.9370   75.5560 C   0  0  0  0  0  0  0  0  0  0  0  0
   -5.1290   61.5890   75.4470 C   0  0  0  0  0  0  0  0  0  0  0  0
   -3.7930   61.3250   75.7930 C   0  0  0  0  0  0  0  0  0  0  0  0
   -6.0520   60.4520   74.9450 C   0  0  0  0  0  0  0  0  0  0  0  0
   -6.7250   60.7570   73.5810 C   0  0  0  0  0  0  0  0  0  0  0  0
   -5.2540   59.1460   74.7450 C   0  0  0  0  0  0  0  0  0  0  0  0
   -7.2060   60.2160   75.9440 C   0  0  0  0  0  0  0  0  0  0  0  0
   -5.1740   65.4750   76.0120 C   0  0  0  0  0  0  0  0  0  0  0  0
   -3.9670   66.4280   76.1470 C   0  0  0  0  0  0  0  0  0  0  0  0
   -6.1440   65.6830   77.1980 C   0  0  0  0  0  0  0  0  0  0  0  0
   -5.9470   65.9340   74.7470 C   0  0  0  0  0  0  0  0  0  0  0  0
   -6.8580   63.2290   75.2780 O   0  0  0  0  0  0  0  0  0  0  0  0
   -0.9710   62.0370   73.5530 S   0  0  0  0  0  0  0  0  0  0  0  0
    0.5190   61.5610   72.6880 C   0  0  0  0  0  0  0  0  0  0  0  0
    1.0560   60.2850   72.8690 C   0  0  0  0  0  0  0  0  0  0  0  0
    2.2220   59.8600   72.2020 C   0  0  0  0  0  0  0  0  0  0  0  0
    2.8650   60.8280   71.3940 C   0  0  0  0  0  0  0  0  0  0  0  0
    2.3580   62.1360   71.1810 C   0  0  0  0  0  0  0  0  0  0  0  0
    1.1770   62.4740   71.8650 C   0  0  0  0  0  0  0  0  0  0  0  0
    3.0590   63.1650   70.2600 C   0  0  0  0  0  0  0  0  0  0  0  0
    3.1200   62.6380   68.8090 C   0  0  0  0  0  0  0  0  0  0  0  0
    4.5250   63.4700   70.6690 C   0  0  0  0  0  0  0  0  0  0  0  0
    2.3210   64.5230   70.2990 C   0  0  0  0  0  0  0  0  0  0  0  0
    2.7230   58.4060   72.3950 C   0  0  0  0  0  0  0  0  0  0  0  0
    1.6120   57.4470   72.9070 C   0  0  0  0  0  0  0  0  0  0  0  0
    3.2330   57.7600   71.0840 C   0  0  0  0  0  0  0  0  0  0  0  0
    3.8510   58.3990   73.4460 C   0  0  0  0  0  0  0  0  0  0  0  0
    4.0580   60.5300   70.7960 O   0  0  0  0  0  0  0  0  0  0  0  0
   -0.2695   64.6482   76.1344 H   0  0  0  0  0  0  0  0  0  0  0  0
    0.6279   64.5883   74.5795 H   0  0  0  0  0  0  0  0  0  0  0  0
   -1.1683   64.6129   74.5795 H   0  0  0  0  0  0  0  0  0  0  0  0
    1.4299   62.1087   76.3195 H   0  0  0  0  0  0  0  0  0  0  0  0
    1.2305   61.2267   74.7674 H   0  0  0  0  0  0  0  0  0  0  0  0
    1.8277   62.9208   74.7674 H   0  0  0  0  0  0  0  0  0  0  0  0
   -2.6834   64.4479   76.5998 H   0  0  0  0  0  0  0  0  0  0  0  0
   -3.4246   60.2892   75.7556 H   0  0  0  0  0  0  0  0  0  0  0  0
   -7.7146   61.2055   73.7526 H   0  0  0  0  0  0  0  0  0  0  0  0
   -6.0980   61.4589   73.0116 H   0  0  0  0  0  0  0  0  0  0  0  0
   -6.8395   59.8228   73.0116 H   0  0  0  0  0  0  0  0  0  0  0  0
   -4.9944   58.7211   75.7258 H   0  0  0  0  0  0  0  0  0  0  0  0
   -5.8659   58.4248   74.1833 H   0  0  0  0  0  0  0  0  0  0  0  0
   -4.3331   59.3614   74.1833 H   0  0  0  0  0  0  0  0  0  0  0  0
   -6.8228   60.2944   76.9721 H   0  0  0  0  0  0  0  0  0  0  0  0
   -7.9885   60.9727   75.7857 H   0  0  0  0  0  0  0  0  0  0  0  0
   -7.6286   59.2128   75.7857 H   0  0  0  0  0  0  0  0  0  0  0  0
   -3.7515   66.5981   77.2122 H   0  0  0  0  0  0  0  0  0  0  0  0
   -3.0882   65.9775   75.6625 H   0  0  0  0  0  0  0  0  0  0  0  0
   -4.2013   67.3874   75.6625 H   0  0  0  0  0  0  0  0  0  0  0  0
   -5.5962   65.5655   78.1446 H   0  0  0  0  0  0  0  0  0  0  0  0
   -6.5746   66.6939   77.1465 H   0  0  0  0  0  0  0  0  0  0  0  0
   -6.9512   64.9375   77.1465 H   0  0  0  0  0  0  0  0  0  0  0  0
   -6.8565   66.4741   75.0489 H   0  0  0  0  0  0  0  0  0  0  0  0
   -5.3076   66.5989   74.1477 H   0  0  0  0  0  0  0  0  0  0  0  0
   -6.2248   65.0544   74.1477 H   0  0  0  0  0  0  0  0  0  0  0  0
   -7.4780   62.5087   75.0007 H   0  0  0  0  0  0  0  0  0  0  0  0
    0.5520   59.5884   73.5551 H   0  0  0  0  0  0  0  0  0  0  0  0
    0.7612   63.4856   71.7477 H   0  0  0  0  0  0  0  0  0  0  0  0
    3.2465   61.5454   68.8208 H   0  0  0  0  0  0  0  0  0  0  0  0
    2.1863   62.8934   68.2866 H   0  0  0  0  0  0  0  0  0  0  0  0
    3.9707   63.1000   68.2866 H   0  0  0  0  0  0  0  0  0  0  0  0
    4.6038   63.4864   71.7661 H   0  0  0  0  0  0  0  0  0  0  0  0
    5.1880   62.6906   70.2654 H   0  0  0  0  0  0  0  0  0  0  0  0
    4.8221   64.4492   70.2654 H   0  0  0  0  0  0  0  0  0  0  0  0
    2.1585   64.8221   71.3450 H   0  0  0  0  0  0  0  0  0  0  0  0
    2.9289   65.2854   69.7899 H   0  0  0  0  0  0  0  0  0  0  0  0
    1.3506   64.4277   69.7899 H   0  0  0  0  0  0  0  0  0  0  0  0
    1.6085   57.4440   74.0070 H   0  0  0  0  0  0  0  0  0  0  0  0
    0.6338   57.7891   72.5382 H   0  0  0  0  0  0  0  0  0  0  0  0
    1.8075   56.4293   72.5382 H   0  0  0  0  0  0  0  0  0  0  0  0
    3.8981   56.9176   71.3249 H   0  0  0  0  0  0  0  0  0  0  0  0
    2.3767   57.3951   70.4977 H   0  0  0  0  0  0  0  0  0  0  0  0
    3.7866   58.5082   70.4977 H   0  0  0  0  0  0  0  0  0  0  0  0
    3.4123   58.4017   74.4547 H   0  0  0  0  0  0  0  0  0  0  0  0
    4.4672   57.4970   73.3166 H   0  0  0  0  0  0  0  0  0  0  0  0
    4.4783   59.2933   73.3166 H   0  0  0  0  0  0  0  0  0  0  0  0
    4.5103   61.2048   70.2302 H   0  0  0  0  0  0  0  0  0  0  0  0
  2  1  1  0
  3  2  1  0
  4  2  1  0
  5  4  1  0
  6  5  2  0
  7  6  1  0
  8  7  2  0
  9  8  1  0
 10  9  2  0
 10  5  1  0
 11  9  1  0
 12 11  1  0
 13 11  1  0
 14 11  1  0
 15  7  1  0
 16 15  1  0
 17 15  1  0
 18 15  1  0
 19  8  1  0
 20  2  1  0
 21 20  1  0
 22 21  2  0
 23 22  1  0
 24 23  2  0
 25 24  1  0
 26 25  2  0
 26 21  1  0
 27 25  1  0
 28 27  1  0
 29 27  1  0
 30 27  1  0
 31 23  1  0
 32 31  1  0
 33 31  1  0
 34 31  1  0
 35 24  1  0
  1 36  1  0
  1 37  1  0
  1 38  1  0
  3 39  1  0
  3 40  1  0
  3 41  1  0
  6 42  1  0
 10 43  1  0
 12 44  1  0
 12 45  1  0
 12 46  1  0
 13 47  1  0
 13 48  1  0
 13 49  1  0
 14 50  1  0
 14 51  1  0
 14 52  1  0
 16 53  1  0
 16 54  1  0
 16 55  1  0
 17 56  1  0
 17 57  1  0
 17 58  1  0
 18 59  1  0
 18 60  1  0
 18 61  1  0
 19 62  1  0
 22 63  1  0
 26 64  1  0
 28 65  1  0
 28 66  1  0
 28 67  1  0
 29 68  1  0
 29 69  1  0
 29 70  1  0
 30 71  1  0
 30 72  1  0
 30 73  1  0
 32 74  1  0
 32 75  1  0
 32 76  1  0
 33 77  1  0
 33 78  1  0
 33 79  1  0
 34 80  1  0
 34 81  1  0
 34 82  1  0
 35 83  1  0
M  END
>  <score>  (6) 
-8.159

$$$$
=
     RDKit          3D

 83 84  0  0  0  0  0  0  0  0999 V2000
    0.5630   61.6510   75.6620 C   0  0  0  0  0  0  0  0  0  0  0  0
   -0.5910   62.4180   75.0040 C   0  0  0  0  0  0  0  0  0  0  0  0
   -0.1880   63.8950   74.8660 C   0  0  0  0  0  0  0  0  0  0  0  0
   -1.0980   61.8470   73.3050 S   0  0  0  0  0  0  0  0  0  0  0  0
    0.4590   61.4210   72.5570 C   0  0  0  0  0  0  0  0  0  0  0  0
    1.0100   60.1520   72.7460 C   0  0  0  0  0  0  0  0  0  0  0  0
    2.2280   59.7830   72.1490 C   0  0  0  0  0  0  0  0  0  0  0  0
    2.8750   60.7750   71.3690 C   0  0  0  0  0  0  0  0  0  0  0  0
    2.3490   62.0720   71.1460 C   0  0  0  0  0  0  0  0  0  0  0  0
    1.1320   62.3680   71.7820 C   0  0  0  0  0  0  0  0  0  0  0  0
    3.0340   63.1160   70.2320 C   0  0  0  0  0  0  0  0  0  0  0  0
    4.4920   63.4450   70.6490 C   0  0  0  0  0  0  0  0  0  0  0  0
    3.1110   62.6050   68.7760 C   0  0  0  0  0  0  0  0  0  0  0  0
    2.2670   64.4560   70.2790 C   0  0  0  0  0  0  0  0  0  0  0  0
    2.8000   58.3570   72.3360 C   0  0  0  0  0  0  0  0  0  0  0  0
    3.8990   58.3490   73.4200 C   0  0  0  0  0  0  0  0  0  0  0  0
    3.3710   57.8220   71.0030 C   0  0  0  0  0  0  0  0  0  0  0  0
    1.7400   57.3170   72.7900 C   0  0  0  0  0  0  0  0  0  0  0  0
    4.0840   60.4640   70.8100 O   0  0  0  0  0  0  0  0  0  0  0  0
   -2.0920   62.3920   76.1160 S   0  0  0  0  0  0  0  0  0  0  0  0
   -2.6860   60.7190   75.9080 C   0  0  0  0  0  0  0  0  0  0  0  0
   -1.7990   59.6450   75.9910 C   0  0  0  0  0  0  0  0  0  0  0  0
   -2.2210   58.3090   75.8440 C   0  0  0  0  0  0  0  0  0  0  0  0
   -3.5890   58.1190   75.5300 C   0  0  0  0  0  0  0  0  0  0  0  0
   -4.5270   59.1800   75.4340 C   0  0  0  0  0  0  0  0  0  0  0  0
   -4.0290   60.4820   75.6170 C   0  0  0  0  0  0  0  0  0  0  0  0
   -6.0270   58.9430   75.1280 C   0  0  0  0  0  0  0  0  0  0  0  0
   -6.7670   58.4560   76.3930 C   0  0  0  0  0  0  0  0  0  0  0  0
   -6.2780   57.8640   74.0410 C   0  0  0  0  0  0  0  0  0  0  0  0
   -6.6840   60.2370   74.5950 C   0  0  0  0  0  0  0  0  0  0  0  0
   -1.1950   57.1610   76.0190 C   0  0  0  0  0  0  0  0  0  0  0  0
   -1.5080   56.2520   77.2410 C   0  0  0  0  0  0  0  0  0  0  0  0
   -1.1470   56.1980   74.8080 C   0  0  0  0  0  0  0  0  0  0  0  0
    0.2040   57.7690   76.2510 C   0  0  0  0  0  0  0  0  0  0  0  0
   -4.0570   56.8610   75.2670 O   0  0  0  0  0  0  0  0  0  0  0  0
    0.4683   61.7139   76.7561 H   0  0  0  0  0  0  0  0  0  0  0  0
    0.5269   60.5965   75.3509 H   0  0  0  0  0  0  0  0  0  0  0  0
    1.5213   62.0925   75.3509 H   0  0  0  0  0  0  0  0  0  0  0  0
   -0.0674   64.3371   75.8660 H   0  0  0  0  0  0  0  0  0  0  0  0
    0.7623   63.9660   74.3166 H   0  0  0  0  0  0  0  0  0  0  0  0
   -0.9706   64.4388   74.3166 H   0  0  0  0  0  0  0  0  0  0  0  0
    0.4786   59.4241   73.3767 H   0  0  0  0  0  0  0  0  0  0  0  0
    0.6977   63.3720   71.6666 H   0  0  0  0  0  0  0  0  0  0  0  0
    4.5647   63.4614   71.7465 H   0  0  0  0  0  0  0  0  0  0  0  0
    5.1701   62.6773   70.2481 H   0  0  0  0  0  0  0  0  0  0  0  0
    4.7748   64.4295   70.2481 H   0  0  0  0  0  0  0  0  0  0  0  0
    3.2749   61.5173   68.7773 H   0  0  0  0  0  0  0  0  0  0  0  0
    2.1683   62.8331   68.2570 H   0  0  0  0  0  0  0  0  0  0  0  0
    3.9446   63.1008   68.2570 H   0  0  0  0  0  0  0  0  0  0  0  0
    2.1006   64.7467   71.3268 H   0  0  0  0  0  0  0  0  0  0  0  0
    2.8566   65.2339   69.7719 H   0  0  0  0  0  0  0  0  0  0  0  0
    1.2976   64.3416   69.7719 H   0  0  0  0  0  0  0  0  0  0  0  0
    3.4318   58.3524   74.4158 H   0  0  0  0  0  0  0  0  0  0  0  0
    4.5176   57.4463   73.3083 H   0  0  0  0  0  0  0  0  0  0  0  0
    4.5307   59.2426   73.3083 H   0  0  0  0  0  0  0  0  0  0  0  0
    4.1591   57.0836   71.2118 H   0  0  0  0  0  0  0  0  0  0  0  0
    2.5660   57.3454   70.4243 H   0  0  0  0  0  0  0  0  0  0  0  0
    3.7942   58.6563   70.4243 H   0  0  0  0  0  0  0  0  0  0  0  0
    1.7061   57.2838   73.8890 H   0  0  0  0  0  0  0  0  0  0  0  0
    0.7525   57.6064   72.4013 H   0  0  0  0  0  0  0  0  0  0  0  0
    2.0105   56.3241   72.4013 H   0  0  0  0  0  0  0  0  0  0  0  0
    4.5620   61.1340   70.2598 H   0  0  0  0  0  0  0  0  0  0  0  0
   -0.7342   59.8484   76.1775 H   0  0  0  0  0  0  0  0  0  0  0  0
   -4.7167   61.3359   75.5283 H   0  0  0  0  0  0  0  0  0  0  0  0
   -6.2331   58.8074   77.2882 H   0  0  0  0  0  0  0  0  0  0  0  0
   -7.7913   58.8571   76.3959 H   0  0  0  0  0  0  0  0  0  0  0  0
   -6.8038   57.3566   76.3959 H   0  0  0  0  0  0  0  0  0  0  0  0
   -6.5019   56.9016   74.5245 H   0  0  0  0  0  0  0  0  0  0  0  0
   -7.1298   58.1663   73.4141 H   0  0  0  0  0  0  0  0  0  0  0  0
   -5.3802   57.7593   73.4141 H   0  0  0  0  0  0  0  0  0  0  0  0
   -7.0017   60.8627   75.4421 H   0  0  0  0  0  0  0  0  0  0  0  0
   -5.9581   60.7911   73.9818 H   0  0  0  0  0  0  0  0  0  0  0  0
   -7.5597   59.9779   73.9818 H   0  0  0  0  0  0  0  0  0  0  0  0
   -1.3164   56.8083   78.1704 H   0  0  0  0  0  0  0  0  0  0  0  0
   -2.5637   55.9447   77.2086 H   0  0  0  0  0  0  0  0  0  0  0  0
   -0.8653   55.3599   77.2086 H   0  0  0  0  0  0  0  0  0  0  0  0
   -1.0952   55.1596   75.1671 H   0  0  0  0  0  0  0  0  0  0  0  0
   -2.0529   56.3303   74.1982 H   0  0  0  0  0  0  0  0  0  0  0  0
   -0.2588   56.4198   74.1982 H   0  0  0  0  0  0  0  0  0  0  0  0
    0.3934   57.8513   77.3314 H   0  0  0  0  0  0  0  0  0  0  0  0
    0.9660   57.1208   75.7935 H   0  0  0  0  0  0  0  0  0  0  0  0
    0.2500   58.7683   75.7935 H   0  0  0  0  0  0  0  0  0  0  0  0
   -5.0125   56.7243   75.0471 H   0  0  0  0  0  0  0  0  0  0  0  0
  2  1  1  0
  3  2  1  0
  4  2  1  0
  5  4  1  0
  6  5  2  0
  7  6  1  0
  8  7  2  0
  9  8  1  0
 10  9  2  0
 10  5  1  0
 11  9  1  0
 12 11  1  0
 13 11  1  0
 14 11  1  0
 15  7  1  0
 16 15  1  0
 17 15  1  0
 18 15  1  0
 19  8  1  0
 20  2  1  0
 21 20  1  0
 22 21  2  0
 23 22  1  0
 24 23  2  0
 25 24  1  0
 26 25  2  0
 26 21  1  0
 27 25  1  0
 28 27  1  0
 29 27  1  0
 30 27  1  0
 31 23  1  0
 32 31  1  0
 33 31  1  0
 34 31  1  0
 35 24  1  0
  1 36  1  0
  1 37  1  0
  1 38  1  0
  3 39  1  0
  3 40  1  0
  3 41  1  0
  6 42  1  0
 10 43  1  0
 12 44  1  0
 12 45  1  0
 12 46  1  0
 13 47  1  0
 13 48  1  0
 13 49  1  0
 14 50  1  0
 14 51  1  0
 14 52  1  0
 16 53  1  0
 16 54  1  0
 16 55  1  0
 17 56  1  0
 17 57  1  0
 17 58  1  0
 18 59  1  0
 18 60  1  0
 18 61  1  0
 19 62  1  0
 22 63  1  0
 26 64  1  0
 28 65  1  0
 28 66  1  0
 28 67  1  0
 29 68  1  0
 29 69  1  0
 29 70  1  0
 30 71  1  0
 30 72  1  0
 30 73  1  0
 32 74  1  0
 32 75  1  0
 32 76  1  0
 33 77  1  0
 33 78  1  0
 33 79  1  0
 34 80  1  0
 34 81  1  0
 34 82  1  0
 35 83  1  0
M  END
>  <score>  (7) 
-8.136

$$$$
=
     RDKit          3D

 83 84  0  0  0  0  0  0  0  0999 V2000
   -0.2610   64.3770   75.0670 C   0  0  0  0  0  0  0  0  0  0  0  0
   -0.2790   62.8450   75.1300 C   0  0  0  0  0  0  0  0  0  0  0  0
    1.1690   62.3370   75.2360 C   0  0  0  0  0  0  0  0  0  0  0  0
   -1.2100   62.0880   76.5560 S   0  0  0  0  0  0  0  0  0  0  0  0
   -2.9050   62.4320   76.1400 C   0  0  0  0  0  0  0  0  0  0  0  0
   -3.7530   61.4040   75.7210 C   0  0  0  0  0  0  0  0  0  0  0  0
   -5.1010   61.6460   75.4070 C   0  0  0  0  0  0  0  0  0  0  0  0
   -5.5450   62.9880   75.5150 C   0  0  0  0  0  0  0  0  0  0  0  0
   -4.7220   64.0600   75.9420 C   0  0  0  0  0  0  0  0  0  0  0  0
   -3.3840   63.7410   76.2300 C   0  0  0  0  0  0  0  0  0  0  0  0
   -5.2420   65.5060   76.1240 C   0  0  0  0  0  0  0  0  0  0  0  0
   -5.9210   66.0840   74.8540 C   0  0  0  0  0  0  0  0  0  0  0  0
   -6.3050   65.5700   77.2430 C   0  0  0  0  0  0  0  0  0  0  0  0
   -4.0740   66.4610   76.4520 C   0  0  0  0  0  0  0  0  0  0  0  0
   -6.0350   60.4840   74.9870 C   0  0  0  0  0  0  0  0  0  0  0  0
   -7.1460   60.2730   76.0370 C   0  0  0  0  0  0  0  0  0  0  0  0
   -5.2270   59.1790   74.8050 C   0  0  0  0  0  0  0  0  0  0  0  0
   -6.7580   60.7260   73.6350 C   0  0  0  0  0  0  0  0  0  0  0  0
   -6.8400   63.2660   75.1750 O   0  0  0  0  0  0  0  0  0  0  0  0
   -0.9570   62.1470   73.5360 S   0  0  0  0  0  0  0  0  0  0  0  0
    0.5260   61.5910   72.7070 C   0  0  0  0  0  0  0  0  0  0  0  0
    1.2070   62.4480   71.8410 C   0  0  0  0  0  0  0  0  0  0  0  0
    2.3850   62.0610   71.1730 C   0  0  0  0  0  0  0  0  0  0  0  0
    2.8000   60.7210   71.3700 C   0  0  0  0  0  0  0  0  0  0  0  0
    2.1400   59.8140   72.2390 C   0  0  0  0  0  0  0  0  0  0  0  0
    0.9850   60.2870   72.8860 C   0  0  0  0  0  0  0  0  0  0  0  0
    2.6360   58.3650   72.4690 C   0  0  0  0  0  0  0  0  0  0  0  0
    3.1150   57.7400   71.1400 C   0  0  0  0  0  0  0  0  0  0  0  0
    1.5430   57.4120   73.0230 C   0  0  0  0  0  0  0  0  0  0  0  0
    3.7800   58.3400   73.5080 C   0  0  0  0  0  0  0  0  0  0  0  0
    3.1290   63.0870   70.2820 C   0  0  0  0  0  0  0  0  0  0  0  0
    4.5930   63.3370   70.7420 C   0  0  0  0  0  0  0  0  0  0  0  0
    3.2470   62.6360   68.8050 C   0  0  0  0  0  0  0  0  0  0  0  0
    2.3930   64.4400   70.3510 C   0  0  0  0  0  0  0  0  0  0  0  0
    3.8730   60.2340   70.6770 O   0  0  0  0  0  0  0  0  0  0  0  0
   -0.2562   64.7859   76.0882 H   0  0  0  0  0  0  0  0  0  0  0  0
    0.6411   64.7115   74.5338 H   0  0  0  0  0  0  0  0  0  0  0  0
   -1.1550   64.7326   74.5338 H   0  0  0  0  0  0  0  0  0  0  0  0
    1.4467   62.2396   76.2959 H   0  0  0  0  0  0  0  0  0  0  0  0
    1.2506   61.3566   74.7440 H   0  0  0  0  0  0  0  0  0  0  0  0
    1.8452   63.0516   74.7440 H   0  0  0  0  0  0  0  0  0  0  0  0
   -3.3563   60.3816   75.6349 H   0  0  0  0  0  0  0  0  0  0  0  0
   -2.6958   64.5433   76.5343 H   0  0  0  0  0  0  0  0  0  0  0  0
   -6.7277   66.7707   75.1499 H   0  0  0  0  0  0  0  0  0  0  0  0
   -5.1761   66.6294   74.2559 H   0  0  0  0  0  0  0  0  0  0  0  0
   -6.3405   65.2616   74.2559 H   0  0  0  0  0  0  0  0  0  0  0  0
   -5.8074   65.5400   78.2236 H   0  0  0  0  0  0  0  0  0  0  0  0
   -6.8783   66.5043   77.1511 H   0  0  0  0  0  0  0  0  0  0  0  0
   -6.9862   64.7112   77.1511 H   0  0  0  0  0  0  0  0  0  0  0  0
   -3.9672   66.5483   77.5433 H   0  0  0  0  0  0  0  0  0  0  0  0
   -3.1428   66.0622   76.0232 H   0  0  0  0  0  0  0  0  0  0  0  0
   -4.2798   67.4528   76.0232 H   0  0  0  0  0  0  0  0  0  0  0  0
   -6.7167   60.3545   77.0465 H   0  0  0  0  0  0  0  0  0  0  0  0
   -7.9242   61.0394   75.9065 H   0  0  0  0  0  0  0  0  0  0  0  0
   -7.5890   59.2747   75.9065 H   0  0  0  0  0  0  0  0  0  0  0  0
   -4.9710   58.7656   75.7917 H   0  0  0  0  0  0  0  0  0  0  0  0
   -5.8311   58.4485   74.2469 H   0  0  0  0  0  0  0  0  0  0  0  0
   -4.3038   59.3941   74.2469 H   0  0  0  0  0  0  0  0  0  0  0  0
   -7.7854   61.0699   73.8250 H   0  0  0  0  0  0  0  0  0  0  0  0
   -6.2154   61.4915   73.0609 H   0  0  0  0  0  0  0  0  0  0  0  0
   -6.7856   59.7881   73.0609 H   0  0  0  0  0  0  0  0  0  0  0  0
   -7.1805   64.1933   75.2395 H   0  0  0  0  0  0  0  0  0  0  0  0
    0.8101   63.4603   71.6745 H   0  0  0  0  0  0  0  0  0  0  0  0
    0.4287   59.6101   73.5511 H   0  0  0  0  0  0  0  0  0  0  0  0
    3.7714   56.8835   71.3532 H   0  0  0  0  0  0  0  0  0  0  0  0
    2.2445   57.3994   70.5602 H   0  0  0  0  0  0  0  0  0  0  0  0
    3.6702   58.4921   70.5602 H   0  0  0  0  0  0  0  0  0  0  0  0
    1.5638   57.4301   74.1227 H   0  0  0  0  0  0  0  0  0  0  0  0
    0.5551   57.7422   72.6695 H   0  0  0  0  0  0  0  0  0  0  0  0
    1.7356   56.3883   72.6695 H   0  0  0  0  0  0  0  0  0  0  0  0
    3.3544   58.3493   74.5223 H   0  0  0  0  0  0  0  0  0  0  0  0
    4.3803   57.4285   73.3706 H   0  0  0  0  0  0  0  0  0  0  0  0
    4.4195   59.2244   73.3706 H   0  0  0  0  0  0  0  0  0  0  0  0
    4.6358   63.3443   71.8411 H   0  0  0  0  0  0  0  0  0  0  0  0
    5.2407   62.5365   70.3552 H   0  0  0  0  0  0  0  0  0  0  0  0
    4.9383   64.3071   70.3552 H   0  0  0  0  0  0  0  0  0  0  0  0
    3.5253   61.5724   68.7675 H   0  0  0  0  0  0  0  0  0  0  0  0
    2.2809   62.7803   68.2993 H   0  0  0  0  0  0  0  0  0  0  0  0
    4.0187   63.2350   68.2993 H   0  0  0  0  0  0  0  0  0  0  0  0
    2.2401   64.7210   71.4035 H   0  0  0  0  0  0  0  0  0  0  0  0
    2.9958   65.2113   69.8494 H   0  0  0  0  0  0  0  0  0  0  0  0
    1.4179   64.3530   69.8494 H   0  0  0  0  0  0  0  0  0  0  0  0
    4.1660   59.2980   70.8120 H   0  0  0  0  0  0  0  0  0  0  0  0
  2  1  1  0
  3  2  1  0
  4  2  1  0
  5  4  1  0
  6  5  2  0
  7  6  1  0
  8  7  2  0
  9  8  1  0
 10  9  2  0
 10  5  1  0
 11  9  1  0
 12 11  1  0
 13 11  1  0
 14 11  1  0
 15  7  1  0
 16 15  1  0
 17 15  1  0
 18 15  1  0
 19  8  1  0
 20  2  1  0
 21 20  1  0
 22 21  2  0
 23 22  1  0
 24 23  2  0
 25 24  1  0
 26 25  2  0
 26 21  1  0
 27 25  1  0
 28 27  1  0
 29 27  1  0
 30 27  1  0
 31 23  1  0
 32 31  1  0
 33 31  1  0
 34 31  1  0
 35 24  1  0
  1 36  1  0
  1 37  1  0
  1 38  1  0
  3 39  1  0
  3 40  1  0
  3 41  1  0
  6 42  1  0
 10 43  1  0
 12 44  1  0
 12 45  1  0
 12 46  1  0
 13 47  1  0
 13 48  1  0
 13 49  1  0
 14 50  1  0
 14 51  1  0
 14 52  1  0
 16 53  1  0
 16 54  1  0
 16 55  1  0
 17 56  1  0
 17 57  1  0
 17 58  1  0
 18 59  1  0
 18 60  1  0
 18 61  1  0
 19 62  1  0
 22 63  1  0
 26 64  1  0
 28 65  1  0
 28 66  1  0
 28 67  1  0
 29 68  1  0
 29 69  1  0
 29 70  1  0
 30 71  1  0
 30 72  1  0
 30 73  1  0
 32 74  1  0
 32 75  1  0
 32 76  1  0
 33 77  1  0
 33 78  1  0
 33 79  1  0
 34 80  1  0
 34 81  1  0
 34 82  1  0
 35 83  1  0
M  END
>  <score>  (8) 
-8.074

$$$$
=
     RDKit          3D

 83 84  0  0  0  0  0  0  0  0999 V2000
    0.0050   64.6240   75.0230 C   0  0  0  0  0  0  0  0  0  0  0  0
    0.0120   63.0940   75.1290 C   0  0  0  0  0  0  0  0  0  0  0  0
    1.4710   62.6090   75.1760 C   0  0  0  0  0  0  0  0  0  0  0  0
   -0.8340   62.3670   76.6220 S   0  0  0  0  0  0  0  0  0  0  0  0
   -2.5550   62.6480   76.2680 C   0  0  0  0  0  0  0  0  0  0  0  0
   -3.3800   61.5890   75.8870 C   0  0  0  0  0  0  0  0  0  0  0  0
   -4.7470   61.7800   75.6230 C   0  0  0  0  0  0  0  0  0  0  0  0
   -5.2340   63.1070   75.7400 C   0  0  0  0  0  0  0  0  0  0  0  0
   -4.4340   64.2090   76.1310 C   0  0  0  0  0  0  0  0  0  0  0  0
   -3.0760   63.9390   76.3700 C   0  0  0  0  0  0  0  0  0  0  0  0
   -4.9990   65.6370   76.3250 C   0  0  0  0  0  0  0  0  0  0  0  0
   -6.0980   65.7250   77.4180 C   0  0  0  0  0  0  0  0  0  0  0  0
   -3.8850   66.6130   76.7610 C   0  0  0  0  0  0  0  0  0  0  0  0
   -5.6580   66.1370   75.0210 C   0  0  0  0  0  0  0  0  0  0  0  0
   -5.6540   60.5830   75.2430 C   0  0  0  0  0  0  0  0  0  0  0  0
   -6.7250   60.3470   76.3280 C   0  0  0  0  0  0  0  0  0  0  0  0
   -4.8090   59.3030   75.0500 C   0  0  0  0  0  0  0  0  0  0  0  0
   -6.4250   60.7860   73.9120 C   0  0  0  0  0  0  0  0  0  0  0  0
   -6.5500   63.3360   75.4480 O   0  0  0  0  0  0  0  0  0  0  0  0
   -0.7360   62.3430   73.5920 S   0  0  0  0  0  0  0  0  0  0  0  0
    0.7110   61.7740   72.7090 C   0  0  0  0  0  0  0  0  0  0  0  0
    1.1780   60.4720   72.8940 C   0  0  0  0  0  0  0  0  0  0  0  0
    2.3060   59.9750   72.2140 C   0  0  0  0  0  0  0  0  0  0  0  0
    2.9900   60.8980   71.3850 C   0  0  0  0  0  0  0  0  0  0  0  0
    2.5530   62.2310   71.1670 C   0  0  0  0  0  0  0  0  0  0  0  0
    1.4050   62.6410   71.8660 C   0  0  0  0  0  0  0  0  0  0  0  0
    3.2960   63.2090   70.2230 C   0  0  0  0  0  0  0  0  0  0  0  0
    3.3390   62.6470   68.7850 C   0  0  0  0  0  0  0  0  0  0  0  0
    4.7720   63.4660   70.6290 C   0  0  0  0  0  0  0  0  0  0  0  0
    2.6130   64.5950   70.2290 C   0  0  0  0  0  0  0  0  0  0  0  0
    2.7270   58.4970   72.4130 C   0  0  0  0  0  0  0  0  0  0  0  0
    1.5680   57.6040   72.9370 C   0  0  0  0  0  0  0  0  0  0  0  0
    3.1950   57.8160   71.1040 C   0  0  0  0  0  0  0  0  0  0  0  0
    3.8580   58.4340   73.4600 C   0  0  0  0  0  0  0  0  0  0  0  0
    4.1540   60.5260   70.7710 O   0  0  0  0  0  0  0  0  0  0  0  0
    0.0030   65.0615   76.0323 H   0  0  0  0  0  0  0  0  0  0  0  0
    0.9016   64.9581   74.4804 H   0  0  0  0  0  0  0  0  0  0  0  0
   -0.8946   64.9498   74.4804 H   0  0  0  0  0  0  0  0  0  0  0  0
    1.7887   62.5034   76.2238 H   0  0  0  0  0  0  0  0  0  0  0  0
    1.5505   61.6361   74.6689 H   0  0  0  0  0  0  0  0  0  0  0  0
    2.1171   63.3407   74.6689 H   0  0  0  0  0  0  0  0  0  0  0  0
   -2.9502   60.5810   75.7911 H   0  0  0  0  0  0  0  0  0  0  0  0
   -2.4057   64.7668   76.6447 H   0  0  0  0  0  0  0  0  0  0  0  0
   -5.6297   65.6875   78.4126 H   0  0  0  0  0  0  0  0  0  0  0  0
   -6.6498   66.6702   77.3079 H   0  0  0  0  0  0  0  0  0  0  0  0
   -6.7932   64.8796   77.3079 H   0  0  0  0  0  0  0  0  0  0  0  0
   -3.8407   66.6518   77.8594 H   0  0  0  0  0  0  0  0  0  0  0  0
   -2.9184   66.2657   76.3671 H   0  0  0  0  0  0  0  0  0  0  0  0
   -4.1022   67.6168   76.3671 H   0  0  0  0  0  0  0  0  0  0  0  0
   -6.5121   66.7851   75.2669 H   0  0  0  0  0  0  0  0  0  0  0  0
   -4.9228   66.7066   74.4336 H   0  0  0  0  0  0  0  0  0  0  0  0
   -6.0085   65.2755   74.4336 H   0  0  0  0  0  0  0  0  0  0  0  0
   -6.2672   60.4479   77.3231 H   0  0  0  0  0  0  0  0  0  0  0  0
   -7.5290   61.0895   76.2173 H   0  0  0  0  0  0  0  0  0  0  0  0
   -7.1424   59.3353   76.2173 H   0  0  0  0  0  0  0  0  0  0  0  0
   -4.5372   58.8913   76.0332 H   0  0  0  0  0  0  0  0  0  0  0  0
   -5.3938   58.5586   74.4897 H   0  0  0  0  0  0  0  0  0  0  0  0
   -3.8947   59.5482   74.4897 H   0  0  0  0  0  0  0  0  0  0  0  0
   -7.4676   61.0605   74.1304 H   0  0  0  0  0  0  0  0  0  0  0  0
   -5.9483   61.5893   73.3310 H   0  0  0  0  0  0  0  0  0  0  0  0
   -6.4057   59.8522   73.3310 H   0  0  0  0  0  0  0  0  0  0  0  0
   -6.9210   64.2510   75.5198 H   0  0  0  0  0  0  0  0  0  0  0  0
    0.6466   59.8116   73.5950 H   0  0  0  0  0  0  0  0  0  0  0  0
    1.0444   63.6731   71.7449 H   0  0  0  0  0  0  0  0  0  0  0  0
    3.4229   61.5508   68.8221 H   0  0  0  0  0  0  0  0  0  0  0  0
    2.4168   62.9264   68.2544 H   0  0  0  0  0  0  0  0  0  0  0  0
    4.2079   63.0635   68.2544 H   0  0  0  0  0  0  0  0  0  0  0  0
    4.8534   63.4802   71.7259 H   0  0  0  0  0  0  0  0  0  0  0  0
    5.4083   62.6651   70.2244 H   0  0  0  0  0  0  0  0  0  0  0  0
    5.1002   64.4348   70.2244 H   0  0  0  0  0  0  0  0  0  0  0  0
    2.4527   64.9203   71.2675 H   0  0  0  0  0  0  0  0  0  0  0  0
    3.2557   65.3227   69.7119 H   0  0  0  0  0  0  0  0  0  0  0  0
    1.6444   64.5287   69.7119 H   0  0  0  0  0  0  0  0  0  0  0  0
    1.5715   57.6067   74.0370 H   0  0  0  0  0  0  0  0  0  0  0  0
    0.6079   57.9981   72.5724 H   0  0  0  0  0  0  0  0  0  0  0  0
    1.7042   56.5751   72.5724 H   0  0  0  0  0  0  0  0  0  0  0  0
    3.8026   56.9319   71.3475 H   0  0  0  0  0  0  0  0  0  0  0  0
    2.3173   57.5074   70.5171 H   0  0  0  0  0  0  0  0  0  0  0  0
    3.7977   58.5248   70.5171 H   0  0  0  0  0  0  0  0  0  0  0  0
    3.4240   58.4582   74.4705 H   0  0  0  0  0  0  0  0  0  0  0  0
    4.4283   57.5027   73.3281 H   0  0  0  0  0  0  0  0  0  0  0  0
    4.5282   59.2962   73.3281 H   0  0  0  0  0  0  0  0  0  0  0  0
    4.6348   61.1682   70.1909 H   0  0  0  0  0  0  0  0  0  0  0  0
  2  1  1  0
  3  2  1  0
  4  2  1  0
  5  4  1  0
  6  5  2  0
  7  6  1  0
  8  7  2  0
  9  8  1  0
 10  9  2  0
 10  5  1  0
 11  9  1  0
 12 11  1  0
 13 11  1  0
 14 11  1  0
 15  7  1  0
 16 15  1  0
 17 15  1  0
 18 15  1  0
 19  8  1  0
 20  2  1  0
 21 20  1  0
 22 21  2  0
 23 22  1  0
 24 23  2  0
 25 24  1  0
 26 25  2  0
 26 21  1  0
 27 25  1  0
 28 27  1  0
 29 27  1  0
 30 27  1  0
 31 23  1  0
 32 31  1  0
 33 31  1  0
 34 31  1  0
 35 24  1  0
  1 36  1  0
  1 37  1  0
  1 38  1  0
  3 39  1  0
  3 40  1  0
  3 41  1  0
  6 42  1  0
 10 43  1  0
 12 44  1  0
 12 45  1  0
 12 46  1  0
 13 47  1  0
 13 48  1  0
 13 49  1  0
 14 50  1  0
 14 51  1  0
 14 52  1  0
 16 53  1  0
 16 54  1  0
 16 55  1  0
 17 56  1  0
 17 57  1  0
 17 58  1  0
 18 59  1  0
 18 60  1  0
 18 61  1  0
 19 62  1  0
 22 63  1  0
 26 64  1  0
 28 65  1  0
 28 66  1  0
 28 67  1  0
 29 68  1  0
 29 69  1  0
 29 70  1  0
 30 71  1  0
 30 72  1  0
 30 73  1  0
 32 74  1  0
 32 75  1  0
 32 76  1  0
 33 77  1  0
 33 78  1  0
 33 79  1  0
 34 80  1  0
 34 81  1  0
 34 82  1  0
 35 83  1  0
M  END
>  <score>  (9) 
-8.067

$$$$
