=
     RDKit          3D

 26 27  0  0  0  0  0  0  0  0999 V2000
    1.7990   68.0530   65.9930 C   0  0  0  0  0  0  0  0  0  0  0  0
    1.8950   66.8950   66.3760 O   0  0  0  0  0  0  0  0  0  0  0  0
   -0.7970   68.8510   65.2380 F   0  0  0  0  0  0  0  0  0  0  0  0
    0.1570   68.8230   64.2970 C   0  0  0  0  0  0  0  0  0  0  0  0
   -0.1970   69.1730   62.9960 C   0  0  0  0  0  0  0  0  0  0  0  0
    0.7530   69.1220   61.9780 C   0  0  0  0  0  0  0  0  0  0  0  0
    2.0570   68.7200   62.2670 C   0  0  0  0  0  0  0  0  0  0  0  0
    2.4130   68.3680   63.5730 C   0  0  0  0  0  0  0  0  0  0  0  0
    1.4600   68.4210   64.6000 C   0  0  0  0  0  0  0  0  0  0  0  0
    2.0770   69.1570   66.9880 C   0  0  0  0  0  0  0  0  0  0  0  0
    1.1290   69.6500   67.5820 O   0  0  0  0  0  0  0  0  0  0  0  0
    3.4730   69.6150   67.1680 C   0  0  0  0  0  0  0  0  0  0  0  0
    4.4230   69.4990   66.1430 C   0  0  0  0  0  0  0  0  0  0  0  0
    5.7330   69.9440   66.3470 C   0  0  0  0  0  0  0  0  0  0  0  0
    6.1020   70.5070   67.5690 C   0  0  0  0  0  0  0  0  0  0  0  0
    5.1610   70.6250   68.5890 C   0  0  0  0  0  0  0  0  0  0  0  0
    3.8560   70.1800   68.3860 C   0  0  0  0  0  0  0  0  0  0  0  0
    2.9740   70.3470   69.3820 F   0  0  0  0  0  0  0  0  0  0  0  0
   -1.2264   69.4896   62.7723 H   0  0  0  0  0  0  0  0  0  0  0  0
    0.4756   69.3978   60.9499 H   0  0  0  0  0  0  0  0  0  0  0  0
    2.8084   68.6796   61.4646 H   0  0  0  0  0  0  0  0  0  0  0  0
    3.4422   68.0491   63.7947 H   0  0  0  0  0  0  0  0  0  0  0  0
    4.1373   69.0573   65.1770 H   0  0  0  0  0  0  0  0  0  0  0  0
    6.4754   69.8498   65.5408 H   0  0  0  0  0  0  0  0  0  0  0  0
    7.1330   70.8566   67.7264 H   0  0  0  0  0  0  0  0  0  0  0  0
    5.4475   71.0690   69.5538 H   0  0  0  0  0  0  0  0  0  0  0  0
  2  1  2  0
  4  3  1  0
  5  4  2  0
  6  5  1  0
  7  6  2  0
  8  7  1  0
  9  8  2  0
  9  4  1  0
  9  1  1  0
 10  1  1  0
 11 10  2  0
 12 10  1  0
 13 12  2  0
 14 13  1  0
 15 14  2  0
 16 15  1  0
 17 16  2  0
 17 12  1  0
 18 17  1  0
  5 19  1  0
  6 20  1  0
  7 21  1  0
  8 22  1  0
 13 23  1  0
 14 24  1  0
 15 25  1  0
 16 26  1  0
M  END
>  <score>  (1) 
-9.549

$$$$
=
     RDKit          3D

 26 27  0  0  0  0  0  0  0  0999 V2000
    2.1020   69.1370   67.0290 C   0  0  0  0  0  0  0  0  0  0  0  0
    1.1670   69.6100   67.6600 O   0  0  0  0  0  0  0  0  0  0  0  0
    3.0730   70.2900   69.4110 F   0  0  0  0  0  0  0  0  0  0  0  0
    3.9170   70.1630   68.3770 C   0  0  0  0  0  0  0  0  0  0  0  0
    5.2200   70.6280   68.5370 C   0  0  0  0  0  0  0  0  0  0  0  0
    6.1220   70.5510   67.4770 C   0  0  0  0  0  0  0  0  0  0  0  0
    5.7130   70.0090   66.2590 C   0  0  0  0  0  0  0  0  0  0  0  0
    4.4040   69.5430   66.0980 C   0  0  0  0  0  0  0  0  0  0  0  0
    3.4960   69.6160   67.1630 C   0  0  0  0  0  0  0  0  0  0  0  0
    1.8070   68.0340   66.0390 C   0  0  0  0  0  0  0  0  0  0  0  0
    1.9620   66.8760   66.4020 O   0  0  0  0  0  0  0  0  0  0  0  0
    1.3820   68.4040   64.6700 C   0  0  0  0  0  0  0  0  0  0  0  0
    2.2800   68.3920   63.5930 C   0  0  0  0  0  0  0  0  0  0  0  0
    1.8440   68.7460   62.3120 C   0  0  0  0  0  0  0  0  0  0  0  0
    0.5150   69.1090   62.0970 C   0  0  0  0  0  0  0  0  0  0  0  0
   -0.3810   69.1200   63.1640 C   0  0  0  0  0  0  0  0  0  0  0  0
    0.0540   68.7690   64.4410 C   0  0  0  0  0  0  0  0  0  0  0  0
   -0.8510   68.7580   65.4300 F   0  0  0  0  0  0  0  0  0  0  0  0
    5.5372   71.0559   69.4994 H   0  0  0  0  0  0  0  0  0  0  0  0
    7.1522   70.9163   67.6008 H   0  0  0  0  0  0  0  0  0  0  0  0
    6.4230   69.9476   65.4210 H   0  0  0  0  0  0  0  0  0  0  0  0
    4.0868   69.1186   65.1340 H   0  0  0  0  0  0  0  0  0  0  0  0
    3.3290   68.1037   63.7559 H   0  0  0  0  0  0  0  0  0  0  0  0
    2.5525   68.7380   61.4706 H   0  0  0  0  0  0  0  0  0  0  0  0
    0.1750   69.3858   61.0882 H   0  0  0  0  0  0  0  0  0  0  0  0
   -1.4304   69.4053   62.9988 H   0  0  0  0  0  0  0  0  0  0  0  0
  2  1  2  0
  4  3  1  0
  5  4  2  0
  6  5  1  0
  7  6  2  0
  8  7  1  0
  9  8  2  0
  9  4  1  0
  9  1  1  0
 10  1  1  0
 11 10  2  0
 12 10  1  0
 13 12  2  0
 14 13  1  0
 15 14  2  0
 16 15  1  0
 17 16  2  0
 17 12  1  0
 18 17  1  0
  5 19  1  0
  6 20  1  0
  7 21  1  0
  8 22  1  0
 13 23  1  0
 14 24  1  0
 15 25  1  0
 16 26  1  0
M  END
>  <score>  (2) 
-9.538

$$$$
=
     RDKit          3D

 26 27  0  0  0  0  0  0  0  0999 V2000
    2.0230   69.1150   67.2090 C   0  0  0  0  0  0  0  0  0  0  0  0
    1.5660   69.9280   68.0000 O   0  0  0  0  0  0  0  0  0  0  0  0
    4.3770   70.0310   68.4610 F   0  0  0  0  0  0  0  0  0  0  0  0
    4.4170   69.7690   67.1470 C   0  0  0  0  0  0  0  0  0  0  0  0
    5.6180   69.9850   66.4740 C   0  0  0  0  0  0  0  0  0  0  0  0
    5.6960   69.7630   65.1010 C   0  0  0  0  0  0  0  0  0  0  0  0
    4.5700   69.3250   64.4050 C   0  0  0  0  0  0  0  0  0  0  0  0
    3.3640   69.1090   65.0800 C   0  0  0  0  0  0  0  0  0  0  0  0
    3.2820   69.3290   66.4620 C   0  0  0  0  0  0  0  0  0  0  0  0
    1.2390   67.8470   66.9600 C   0  0  0  0  0  0  0  0  0  0  0  0
    1.8560   66.7940   66.8770 O   0  0  0  0  0  0  0  0  0  0  0  0
   -0.2290   67.9420   66.7900 C   0  0  0  0  0  0  0  0  0  0  0  0
   -0.8030   68.7420   65.7930 C   0  0  0  0  0  0  0  0  0  0  0  0
   -2.1940   68.8070   65.6590 C   0  0  0  0  0  0  0  0  0  0  0  0
   -3.0170   68.0750   66.5150 C   0  0  0  0  0  0  0  0  0  0  0  0
   -2.4500   67.2770   67.5060 C   0  0  0  0  0  0  0  0  0  0  0  0
   -1.0640   67.2130   67.6400 C   0  0  0  0  0  0  0  0  0  0  0  0
   -0.5610   66.4040   68.5830 F   0  0  0  0  0  0  0  0  0  0  0  0
    6.5040   70.3306   67.0267 H   0  0  0  0  0  0  0  0  0  0  0  0
    6.6429   69.9327   64.5676 H   0  0  0  0  0  0  0  0  0  0  0  0
    4.6303   69.1486   63.3209 H   0  0  0  0  0  0  0  0  0  0  0  0
    2.4783   68.7658   64.5253 H   0  0  0  0  0  0  0  0  0  0  0  0
   -0.1586   69.3201   65.1144 H   0  0  0  0  0  0  0  0  0  0  0  0
   -2.6403   69.4375   64.8759 H   0  0  0  0  0  0  0  0  0  0  0  0
   -4.1105   68.1278   66.4078 H   0  0  0  0  0  0  0  0  0  0  0  0
   -3.0956   66.6977   68.1824 H   0  0  0  0  0  0  0  0  0  0  0  0
  2  1  2  0
  4  3  1  0
  5  4  2  0
  6  5  1  0
  7  6  2  0
  8  7  1  0
  9  8  2  0
  9  4  1  0
  9  1  1  0
 10  1  1  0
 11 10  2  0
 12 10  1  0
 13 12  2  0
 14 13  1  0
 15 14  2  0
 16 15  1  0
 17 16  2  0
 17 12  1  0
 18 17  1  0
  5 19  1  0
  6 20  1  0
  7 21  1  0
  8 22  1  0
 13 23  1  0
 14 24  1  0
 15 25  1  0
 16 26  1  0
M  END
>  <score>  (3) 
-9.443

$$$$
=
     RDKit          3D

 26 27  0  0  0  0  0  0  0  0999 V2000
    1.1870   67.8440   67.2260 C   0  0  0  0  0  0  0  0  0  0  0  0
    1.7540   66.7790   67.4310 O   0  0  0  0  0  0  0  0  0  0  0  0
   -0.7230   66.3550   68.6700 F   0  0  0  0  0  0  0  0  0  0  0  0
   -1.1590   67.1960   67.7220 C   0  0  0  0  0  0  0  0  0  0  0  0
   -2.5310   67.2690   67.4940 C   0  0  0  0  0  0  0  0  0  0  0  0
   -3.0270   68.1020   66.4930 C   0  0  0  0  0  0  0  0  0  0  0  0
   -2.1450   68.8590   65.7220 C   0  0  0  0  0  0  0  0  0  0  0  0
   -0.7670   68.7850   65.9500 C   0  0  0  0  0  0  0  0  0  0  0  0
   -0.2650   67.9500   66.9580 C   0  0  0  0  0  0  0  0  0  0  0  0
    2.0210   69.1040   67.2110 C   0  0  0  0  0  0  0  0  0  0  0  0
    1.7340   69.9950   67.9990 O   0  0  0  0  0  0  0  0  0  0  0  0
    3.1180   69.2170   66.2240 C   0  0  0  0  0  0  0  0  0  0  0  0
    2.9200   68.9210   64.8680 C   0  0  0  0  0  0  0  0  0  0  0  0
    3.9780   69.0410   63.9610 C   0  0  0  0  0  0  0  0  0  0  0  0
    5.2350   69.4560   64.4000 C   0  0  0  0  0  0  0  0  0  0  0  0
    5.4360   69.7530   65.7460 C   0  0  0  0  0  0  0  0  0  0  0  0
    4.3820   69.6330   66.6500 C   0  0  0  0  0  0  0  0  0  0  0  0
    4.6100   69.9640   67.9280 F   0  0  0  0  0  0  0  0  0  0  0  0
   -3.2228   66.6694   68.1038 H   0  0  0  0  0  0  0  0  0  0  0  0
   -4.1103   68.1623   66.3115 H   0  0  0  0  0  0  0  0  0  0  0  0
   -2.5348   69.5170   64.9313 H   0  0  0  0  0  0  0  0  0  0  0  0
   -0.0761   69.3829   65.3375 H   0  0  0  0  0  0  0  0  0  0  0  0
    1.9304   68.5937   64.5166 H   0  0  0  0  0  0  0  0  0  0  0  0
    3.8181   68.8073   62.8981 H   0  0  0  0  0  0  0  0  0  0  0  0
    6.0658   69.5486   63.6850 H   0  0  0  0  0  0  0  0  0  0  0  0
    6.4259   70.0820   66.0952 H   0  0  0  0  0  0  0  0  0  0  0  0
  2  1  2  0
  4  3  1  0
  5  4  2  0
  6  5  1  0
  7  6  2  0
  8  7  1  0
  9  8  2  0
  9  4  1  0
  9  1  1  0
 10  1  1  0
 11 10  2  0
 12 10  1  0
 13 12  2  0
 14 13  1  0
 15 14  2  0
 16 15  1  0
 17 16  2  0
 17 12  1  0
 18 17  1  0
  5 19  1  0
  6 20  1  0
  7 21  1  0
  8 22  1  0
 13 23  1  0
 14 24  1  0
 15 25  1  0
 16 26  1  0
M  END
>  <score>  (4) 
-9.44

$$$$
=
     RDKit          3D

 26 27  0  0  0  0  0  0  0  0999 V2000
    4.3750   69.2950   65.1620 C   0  0  0  0  0  0  0  0  0  0  0  0
    5.1780   69.7870   64.3810 O   0  0  0  0  0  0  0  0  0  0  0  0
    6.5910   70.2380   66.6300 F   0  0  0  0  0  0  0  0  0  0  0  0
    5.4000   70.1830   67.2430 C   0  0  0  0  0  0  0  0  0  0  0  0
    5.3340   70.5780   68.5770 C   0  0  0  0  0  0  0  0  0  0  0  0
    4.1250   70.5020   69.2660 C   0  0  0  0  0  0  0  0  0  0  0  0
    2.9850   70.0300   68.6150 C   0  0  0  0  0  0  0  0  0  0  0  0
    3.0520   69.6320   67.2760 C   0  0  0  0  0  0  0  0  0  0  0  0
    4.2660   69.7100   66.5790 C   0  0  0  0  0  0  0  0  0  0  0  0
    3.4800   68.1870   64.6600 C   0  0  0  0  0  0  0  0  0  0  0  0
    3.7890   67.0320   64.9210 O   0  0  0  0  0  0  0  0  0  0  0  0
    2.2950   68.5440   63.8460 C   0  0  0  0  0  0  0  0  0  0  0  0
    1.0230   68.6780   64.4200 C   0  0  0  0  0  0  0  0  0  0  0  0
   -0.0740   69.0190   63.6220 C   0  0  0  0  0  0  0  0  0  0  0  0
    0.0910   69.2300   62.2540 C   0  0  0  0  0  0  0  0  0  0  0  0
    1.3540   69.1000   61.6800 C   0  0  0  0  0  0  0  0  0  0  0  0
    2.4470   68.7580   62.4750 C   0  0  0  0  0  0  0  0  0  0  0  0
    3.6500   68.6810   61.8880 F   0  0  0  0  0  0  0  0  0  0  0  0
    6.2354   70.9496   69.0863 H   0  0  0  0  0  0  0  0  0  0  0  0
    4.0698   70.8131   70.3196 H   0  0  0  0  0  0  0  0  0  0  0  0
    2.0297   69.9706   69.1570 H   0  0  0  0  0  0  0  0  0  0  0  0
    2.1507   69.2571   66.7688 H   0  0  0  0  0  0  0  0  0  0  0  0
    0.8875   68.5148   65.4993 H   0  0  0  0  0  0  0  0  0  0  0  0
   -1.0708   69.1211   64.0757 H   0  0  0  0  0  0  0  0  0  0  0  0
   -0.7736   69.4984   61.6292 H   0  0  0  0  0  0  0  0  0  0  0  0
    1.4885   69.2670   60.6011 H   0  0  0  0  0  0  0  0  0  0  0  0
  2  1  2  0
  4  3  1  0
  5  4  2  0
  6  5  1  0
  7  6  2  0
  8  7  1  0
  9  8  2  0
  9  4  1  0
  9  1  1  0
 10  1  1  0
 11 10  2  0
 12 10  1  0
 13 12  2  0
 14 13  1  0
 15 14  2  0
 16 15  1  0
 17 16  2  0
 17 12  1  0
 18 17  1  0
  5 19  1  0
  6 20  1  0
  7 21  1  0
  8 22  1  0
 13 23  1  0
 14 24  1  0
 15 25  1  0
 16 26  1  0
M  END
>  <score>  (5) 
-9.366

$$$$
=
     RDKit          3D

 26 27  0  0  0  0  0  0  0  0999 V2000
    2.2260   68.4660   64.9090 C   0  0  0  0  0  0  0  0  0  0  0  0
    1.6940   69.0950   64.0050 O   0  0  0  0  0  0  0  0  0  0  0  0
    1.5390   69.2340   67.5340 F   0  0  0  0  0  0  0  0  0  0  0  0
    2.8060   69.4050   67.1340 C   0  0  0  0  0  0  0  0  0  0  0  0
    3.7050   69.9700   68.0350 C   0  0  0  0  0  0  0  0  0  0  0  0
    5.0250   70.2010   67.6510 C   0  0  0  0  0  0  0  0  0  0  0  0
    5.4400   69.8640   66.3630 C   0  0  0  0  0  0  0  0  0  0  0  0
    4.5370   69.2970   65.4570 C   0  0  0  0  0  0  0  0  0  0  0  0
    3.2100   69.0610   65.8410 C   0  0  0  0  0  0  0  0  0  0  0  0
    1.8850   67.0010   65.0540 C   0  0  0  0  0  0  0  0  0  0  0  0
    0.7890   66.7060   65.5080 O   0  0  0  0  0  0  0  0  0  0  0  0
    2.9040   65.9940   64.6760 C   0  0  0  0  0  0  0  0  0  0  0  0
    3.1050   64.8330   65.4350 C   0  0  0  0  0  0  0  0  0  0  0  0
    4.0740   63.9020   65.0480 C   0  0  0  0  0  0  0  0  0  0  0  0
    4.8440   64.1220   63.9070 C   0  0  0  0  0  0  0  0  0  0  0  0
    4.6460   65.2740   63.1490 C   0  0  0  0  0  0  0  0  0  0  0  0
    3.6810   66.2030   63.5350 C   0  0  0  0  0  0  0  0  0  0  0  0
    3.4980   67.2780   62.7560 F   0  0  0  0  0  0  0  0  0  0  0  0
    3.3734   70.2341   69.0500 H   0  0  0  0  0  0  0  0  0  0  0  0
    5.7365   70.6474   68.3612 H   0  0  0  0  0  0  0  0  0  0  0  0
    6.4813   70.0446   66.0581 H   0  0  0  0  0  0  0  0  0  0  0  0
    4.8693   69.0360   64.4414 H   0  0  0  0  0  0  0  0  0  0  0  0
    2.4999   64.6540   66.3360 H   0  0  0  0  0  0  0  0  0  0  0  0
    4.2293   62.9922   65.6465 H   0  0  0  0  0  0  0  0  0  0  0  0
    5.6059   63.3880   63.6059 H   0  0  0  0  0  0  0  0  0  0  0  0
    5.2504   65.4503   62.2470 H   0  0  0  0  0  0  0  0  0  0  0  0
  2  1  2  0
  4  3  1  0
  5  4  2  0
  6  5  1  0
  7  6  2  0
  8  7  1  0
  9  8  2  0
  9  4  1  0
  9  1  1  0
 10  1  1  0
 11 10  2  0
 12 10  1  0
 13 12  2  0
 14 13  1  0
 15 14  2  0
 16 15  1  0
 17 16  2  0
 17 12  1  0
 18 17  1  0
  5 19  1  0
  6 20  1  0
  7 21  1  0
  8 22  1  0
 13 23  1  0
 14 24  1  0
 15 25  1  0
 16 26  1  0
M  END
>  <score>  (6) 
-9.249

$$$$
=
     RDKit          3D

 26 27  0  0  0  0  0  0  0  0999 V2000
    2.7230   68.7520   65.7000 C   0  0  0  0  0  0  0  0  0  0  0  0
    2.9500   69.0920   64.5460 O   0  0  0  0  0  0  0  0  0  0  0  0
    5.4560   69.4260   65.8720 F   0  0  0  0  0  0  0  0  0  0  0  0
    4.6530   69.7660   66.8900 C   0  0  0  0  0  0  0  0  0  0  0  0
    5.2220   70.4150   67.9820 C   0  0  0  0  0  0  0  0  0  0  0  0
    4.4330   70.7540   69.0800 C   0  0  0  0  0  0  0  0  0  0  0  0
    3.0750   70.4390   69.0800 C   0  0  0  0  0  0  0  0  0  0  0  0
    2.5030   69.7860   67.9830 C   0  0  0  0  0  0  0  0  0  0  0  0
    3.2930   69.4470   66.8760 C   0  0  0  0  0  0  0  0  0  0  0  0
    1.8460   67.5420   65.9260 C   0  0  0  0  0  0  0  0  0  0  0  0
    2.3420   66.4350   65.7740 O   0  0  0  0  0  0  0  0  0  0  0  0
    0.4250   67.7520   66.2820 C   0  0  0  0  0  0  0  0  0  0  0  0
   -0.1260   67.2160   67.4540 C   0  0  0  0  0  0  0  0  0  0  0  0
   -1.4730   67.4360   67.7610 C   0  0  0  0  0  0  0  0  0  0  0  0
   -2.2740   68.1900   66.9050 C   0  0  0  0  0  0  0  0  0  0  0  0
   -1.7300   68.7270   65.7400 C   0  0  0  0  0  0  0  0  0  0  0  0
   -0.3890   68.5070   65.4330 C   0  0  0  0  0  0  0  0  0  0  0  0
    0.1020   69.0720   64.3220 F   0  0  0  0  0  0  0  0  0  0  0  0
    6.2943   70.6604   67.9785 H   0  0  0  0  0  0  0  0  0  0  0  0
    4.8803   71.2682   69.9434 H   0  0  0  0  0  0  0  0  0  0  0  0
    2.4509   70.7049   69.9459 H   0  0  0  0  0  0  0  0  0  0  0  0
    1.4313   69.5381   67.9892 H   0  0  0  0  0  0  0  0  0  0  0  0
    0.5019   66.6212   68.1337 H   0  0  0  0  0  0  0  0  0  0  0  0
   -1.9016   67.0124   68.6813 H   0  0  0  0  0  0  0  0  0  0  0  0
   -3.3330   68.3607   67.1486 H   0  0  0  0  0  0  0  0  0  0  0  0
   -2.3588   69.3241   65.0633 H   0  0  0  0  0  0  0  0  0  0  0  0
  2  1  2  0
  4  3  1  0
  5  4  2  0
  6  5  1  0
  7  6  2  0
  8  7  1  0
  9  8  2  0
  9  4  1  0
  9  1  1  0
 10  1  1  0
 11 10  2  0
 12 10  1  0
 13 12  2  0
 14 13  1  0
 15 14  2  0
 16 15  1  0
 17 16  2  0
 17 12  1  0
 18 17  1  0
  5 19  1  0
  6 20  1  0
  7 21  1  0
  8 22  1  0
 13 23  1  0
 14 24  1  0
 15 25  1  0
 16 26  1  0
M  END
>  <score>  (7) 
-9.162

$$$$
=
     RDKit          3D

 26 27  0  0  0  0  0  0  0  0999 V2000
    1.8360   67.6750   65.9460 C   0  0  0  0  0  0  0  0  0  0  0  0
    2.3070   66.5520   66.0680 O   0  0  0  0  0  0  0  0  0  0  0  0
    0.2800   66.8520   68.1480 F   0  0  0  0  0  0  0  0  0  0  0  0
   -0.3220   67.5370   67.1660 C   0  0  0  0  0  0  0  0  0  0  0  0
   -1.6880   67.7850   67.2850 C   0  0  0  0  0  0  0  0  0  0  0  0
   -2.3640   68.4610   66.2710 C   0  0  0  0  0  0  0  0  0  0  0  0
   -1.6680   68.8870   65.1400 C   0  0  0  0  0  0  0  0  0  0  0  0
   -0.2970   68.6370   65.0200 C   0  0  0  0  0  0  0  0  0  0  0  0
    0.3860   67.9600   66.0390 C   0  0  0  0  0  0  0  0  0  0  0  0
    2.7810   68.8160   65.6500 C   0  0  0  0  0  0  0  0  0  0  0  0
    2.9410   69.1450   64.4820 O   0  0  0  0  0  0  0  0  0  0  0  0
    3.4970   69.4550   66.7770 C   0  0  0  0  0  0  0  0  0  0  0  0
    2.8370   69.8030   67.9640 C   0  0  0  0  0  0  0  0  0  0  0  0
    3.5440   70.4040   69.0100 C   0  0  0  0  0  0  0  0  0  0  0  0
    4.9090   70.6590   68.8800 C   0  0  0  0  0  0  0  0  0  0  0  0
    5.5690   70.3140   67.7020 C   0  0  0  0  0  0  0  0  0  0  0  0
    4.8640   69.7160   66.6590 C   0  0  0  0  0  0  0  0  0  0  0  0
    5.5460   69.3670   65.5600 F   0  0  0  0  0  0  0  0  0  0  0  0
   -2.2326   67.4473   68.1791 H   0  0  0  0  0  0  0  0  0  0  0  0
   -3.4424   68.6578   66.3623 H   0  0  0  0  0  0  0  0  0  0  0  0
   -2.1994   69.4218   64.3390 H   0  0  0  0  0  0  0  0  0  0  0  0
    0.2459   68.9725   64.1241 H   0  0  0  0  0  0  0  0  0  0  0  0
    1.7608   69.6028   68.0726 H   0  0  0  0  0  0  0  0  0  0  0  0
    3.0217   70.6767   69.9389 H   0  0  0  0  0  0  0  0  0  0  0  0
    5.4630   71.1310   69.7048 H   0  0  0  0  0  0  0  0  0  0  0  0
    6.6455   70.5135   67.5955 H   0  0  0  0  0  0  0  0  0  0  0  0
  2  1  2  0
  4  3  1  0
  5  4  2  0
  6  5  1  0
  7  6  2  0
  8  7  1  0
  9  8  2  0
  9  4  1  0
  9  1  1  0
 10  1  1  0
 11 10  2  0
 12 10  1  0
 13 12  2  0
 14 13  1  0
 15 14  2  0
 16 15  1  0
 17 16  2  0
 17 12  1  0
 18 17  1  0
  5 19  1  0
  6 20  1  0
  7 21  1  0
  8 22  1  0
 13 23  1  0
 14 24  1  0
 15 25  1  0
 16 26  1  0
M  END
>  <score>  (8) 
-9.058

$$$$
=
     RDKit          3D

 26 27  0  0  0  0  0  0  0  0999 V2000
    2.3280   67.4790   65.1530 C   0  0  0  0  0  0  0  0  0  0  0  0
    2.3530   66.3210   65.5470 O   0  0  0  0  0  0  0  0  0  0  0  0
    4.8670   66.9780   64.0330 F   0  0  0  0  0  0  0  0  0  0  0  0
    3.9440   67.5780   63.2690 C   0  0  0  0  0  0  0  0  0  0  0  0
    4.3020   67.9360   61.9720 C   0  0  0  0  0  0  0  0  0  0  0  0
    3.3860   68.5960   61.1540 C   0  0  0  0  0  0  0  0  0  0  0  0
    2.1140   68.8950   61.6400 C   0  0  0  0  0  0  0  0  0  0  0  0
    1.7540   68.5370   62.9430 C   0  0  0  0  0  0  0  0  0  0  0  0
    2.6720   67.8710   63.7670 C   0  0  0  0  0  0  0  0  0  0  0  0
    1.9640   68.5600   66.1430 C   0  0  0  0  0  0  0  0  0  0  0  0
    0.7800   68.8250   66.2990 O   0  0  0  0  0  0  0  0  0  0  0  0
    3.0540   69.2720   66.8500 C   0  0  0  0  0  0  0  0  0  0  0  0
    4.3020   69.4870   66.2490 C   0  0  0  0  0  0  0  0  0  0  0  0
    5.3080   70.1650   66.9440 C   0  0  0  0  0  0  0  0  0  0  0  0
    5.0760   70.6330   68.2360 C   0  0  0  0  0  0  0  0  0  0  0  0
    3.8360   70.4240   68.8370 C   0  0  0  0  0  0  0  0  0  0  0  0
    2.8340   69.7470   68.1450 C   0  0  0  0  0  0  0  0  0  0  0  0
    1.6450   69.6000   68.7460 F   0  0  0  0  0  0  0  0  0  0  0  0
    5.3069   67.6983   61.5929 H   0  0  0  0  0  0  0  0  0  0  0  0
    3.6659   68.8798   60.1288 H   0  0  0  0  0  0  0  0  0  0  0  0
    1.3901   69.4150   60.9954 H   0  0  0  0  0  0  0  0  0  0  0  0
    0.7498   68.7782   63.3217 H   0  0  0  0  0  0  0  0  0  0  0  0
    4.4902   69.1216   65.2287 H   0  0  0  0  0  0  0  0  0  0  0  0
    6.2865   70.3297   66.4691 H   0  0  0  0  0  0  0  0  0  0  0  0
    5.8696   71.1660   68.7801 H   0  0  0  0  0  0  0  0  0  0  0  0
    3.6487   70.7930   69.8562 H   0  0  0  0  0  0  0  0  0  0  0  0
  2  1  2  0
  4  3  1  0
  5  4  2  0
  6  5  1  0
  7  6  2  0
  8  7  1  0
  9  8  2  0
  9  4  1  0
  9  1  1  0
 10  1  1  0
 11 10  2  0
 12 10  1  0
 13 12  2  0
 14 13  1  0
 15 14  2  0
 16 15  1  0
 17 16  2  0
 17 12  1  0
 18 17  1  0
  5 19  1  0
  6 20  1  0
  7 21  1  0
  8 22  1  0
 13 23  1  0
 14 24  1  0
 15 25  1  0
 16 26  1  0
M  END
>  <score>  (9) 
-8.934

$$$$
