=
     RDKit          3D

 44 44  0  0  0  0  0  0  0  0999 V2000
    5.0970   69.5430   65.4930 C   0  0  0  0  0  0  0  0  0  0  0  0
    3.9320   69.3890   66.2580 C   0  0  0  0  0  0  0  0  0  0  0  0
    2.7000   69.0820   65.6690 C   0  0  0  0  0  0  0  0  0  0  0  0
    2.6170   68.8920   64.2870 C   0  0  0  0  0  0  0  0  0  0  0  0
    3.7750   69.0110   63.5120 C   0  0  0  0  0  0  0  0  0  0  0  0
    5.0010   69.3200   64.1150 C   0  0  0  0  0  0  0  0  0  0  0  0
    6.3010   69.7720   66.1590 N   0  0  0  0  0  0  0  0  0  0  0  0
    6.4650   70.9500   67.0060 C   0  0  0  0  0  0  0  0  0  0  0  0
    6.2730   70.5870   68.4820 C   0  0  0  0  0  0  0  0  0  0  0  0
    7.3140   70.4290   70.7710 C   0  0  0  0  0  0  0  0  0  0  0  0
    7.4970   70.9130   69.3410 C   0  0  0  0  0  0  0  0  0  0  0  0
    1.3440   68.5480   63.6060 C   0  0  0  0  0  0  0  0  0  0  0  0
    1.1240   68.7250   62.4140 O   0  0  0  0  0  0  0  0  0  0  0  0
    0.4620   67.9660   64.4550 O   0  0  0  0  0  0  0  0  0  0  0  0
   -0.7240   68.7190   64.7840 C   0  0  0  0  0  0  0  0  0  0  0  0
   -0.8730   68.9750   66.2950 C   0  0  0  0  0  0  0  0  0  0  0  0
   -2.2510   68.5950   66.8120 N   0  0  0  0  0  4  0  0  0  0  0  0
   -3.3190   68.7560   65.7710 C   0  0  0  0  0  0  0  0  0  0  0  0
   -2.3040   67.2420   67.4580 C   0  0  0  0  0  0  0  0  0  0  0  0
    3.9878   69.5127   67.3496 H   0  0  0  0  0  0  0  0  0  0  0  0
    1.7986   68.9904   66.2928 H   0  0  0  0  0  0  0  0  0  0  0  0
    3.7228   68.8612   62.4235 H   0  0  0  0  0  0  0  0  0  0  0  0
    5.9058   69.3887   63.4932 H   0  0  0  0  0  0  0  0  0  0  0  0
    7.0794   69.1059   66.0526 H   0  0  0  0  0  0  0  0  0  0  0  0
    7.4760   71.3593   66.8634 H   0  0  0  0  0  0  0  0  0  0  0  0
    5.7077   71.6964   66.7241 H   0  0  0  0  0  0  0  0  0  0  0  0
    5.4112   71.1484   68.8720 H   0  0  0  0  0  0  0  0  0  0  0  0
    6.1127   69.5001   68.5358 H   0  0  0  0  0  0  0  0  0  0  0  0
    7.6148   71.2245   71.4687 H   0  0  0  0  0  0  0  0  0  0  0  0
    6.2573   70.1739   70.9394 H   0  0  0  0  0  0  0  0  0  0  0  0
    7.9375   69.5386   70.9394 H   0  0  0  0  0  0  0  0  0  0  0  0
    7.6496   72.0023   69.3483 H   0  0  0  0  0  0  0  0  0  0  0  0
    8.3697   70.4003   68.9102 H   0  0  0  0  0  0  0  0  0  0  0  0
   -0.6784   69.6888   64.2668 H   0  0  0  0  0  0  0  0  0  0  0  0
   -1.5917   68.1237   64.4636 H   0  0  0  0  0  0  0  0  0  0  0  0
   -0.1181   68.3806   66.8305 H   0  0  0  0  0  0  0  0  0  0  0  0
   -0.7339   70.0522   66.4688 H   0  0  0  0  0  0  0  0  0  0  0  0
   -2.4490   69.2721   67.5624 H   0  0  0  0  0  0  0  0  0  0  0  0
   -4.2917   68.9026   66.2633 H   0  0  0  0  0  0  0  0  0  0  0  0
   -3.0903   69.6298   65.1432 H   0  0  0  0  0  0  0  0  0  0  0  0
   -3.3581   67.8536   65.1432 H   0  0  0  0  0  0  0  0  0  0  0  0
   -2.2995   67.3575   68.5519 H   0  0  0  0  0  0  0  0  0  0  0  0
   -3.2232   66.7234   67.1479 H   0  0  0  0  0  0  0  0  0  0  0  0
   -1.4282   66.6531   67.1479 H   0  0  0  0  0  0  0  0  0  0  0  0
  2  1  2  0
  3  2  1  0
  4  3  2  0
  5  4  1  0
  6  5  2  0
  6  1  1  0
  7  1  1  0
  8  7  1  0
  9  8  1  0
 11 10  1  0
 11  9  1  0
 12  4  1  0
 13 12  2  0
 14 12  1  0
 15 14  1  0
 16 15  1  0
 17 16  1  0
 18 17  1  0
 19 17  1  0
  2 20  1  0
  3 21  1  0
  5 22  1  0
  6 23  1  0
  7 24  1  0
  8 25  1  0
  8 26  1  0
  9 27  1  0
  9 28  1  0
 10 29  1  0
 10 30  1  0
 10 31  1  0
 11 32  1  0
 11 33  1  0
 15 34  1  0
 15 35  1  0
 16 36  1  0
 16 37  1  0
 17 38  1  0
 18 39  1  0
 18 40  1  0
 18 41  1  0
 19 42  1  0
 19 43  1  0
 19 44  1  0
M  CHG  1  17   1
M  END
>  <score>  (1) 
-8.056

$$$$
=
     RDKit          3D

 44 44  0  0  0  0  0  0  0  0999 V2000
    3.7920   69.3900   66.3900 C   0  0  0  0  0  0  0  0  0  0  0  0
    3.2320   68.4490   65.5130 C   0  0  0  0  0  0  0  0  0  0  0  0
    2.0430   67.7760   65.8170 C   0  0  0  0  0  0  0  0  0  0  0  0
    1.3680   68.0580   67.0080 C   0  0  0  0  0  0  0  0  0  0  0  0
    1.8950   69.0150   67.8790 C   0  0  0  0  0  0  0  0  0  0  0  0
    3.0860   69.6810   67.5630 C   0  0  0  0  0  0  0  0  0  0  0  0
    4.9360   70.0760   65.9840 N   0  0  0  0  0  0  0  0  0  0  0  0
    6.2360   69.7560   66.5680 C   0  0  0  0  0  0  0  0  0  0  0  0
    6.7360   70.9120   67.4410 C   0  0  0  0  0  0  0  0  0  0  0  0
    7.5550   70.9060   69.8240 C   0  0  0  0  0  0  0  0  0  0  0  0
    6.3460   70.7600   68.9130 C   0  0  0  0  0  0  0  0  0  0  0  0
    0.0940   67.3910   67.3770 C   0  0  0  0  0  0  0  0  0  0  0  0
   -0.6530   66.8330   66.5830 O   0  0  0  0  0  0  0  0  0  0  0  0
   -0.1250   67.4330   68.7140 O   0  0  0  0  0  0  0  0  0  0  0  0
   -0.1780   66.1700   69.4090 C   0  0  0  0  0  0  0  0  0  0  0  0
    1.1400   65.8210   70.1250 C   0  0  0  0  0  0  0  0  0  0  0  0
    1.4180   64.3270   70.1260 N   0  0  0  0  0  4  0  0  0  0  0  0
    2.7840   63.9970   70.6500 C   0  0  0  0  0  0  0  0  0  0  0  0
    0.3520   63.5120   70.7980 C   0  0  0  0  0  0  0  0  0  0  0  0
    3.7407   68.2345   64.5616 H   0  0  0  0  0  0  0  0  0  0  0  0
    1.6405   67.0264   65.1198 H   0  0  0  0  0  0  0  0  0  0  0  0
    1.3715   69.2467   68.8183 H   0  0  0  0  0  0  0  0  0  0  0  0
    3.4740   70.4475   68.2500 H   0  0  0  0  0  0  0  0  0  0  0  0
    4.8639   70.8129   65.2679 H   0  0  0  0  0  0  0  0  0  0  0  0
    6.1414   68.8511   67.1863 H   0  0  0  0  0  0  0  0  0  0  0  0
    6.9578   69.5885   65.7550 H   0  0  0  0  0  0  0  0  0  0  0  0
    7.8329   70.9551   67.3714 H   0  0  0  0  0  0  0  0  0  0  0  0
    6.2651   71.8338   67.0687 H   0  0  0  0  0  0  0  0  0  0  0  0
    7.2297   70.8667   70.8741 H   0  0  0  0  0  0  0  0  0  0  0  0
    8.2625   70.0868   69.6284 H   0  0  0  0  0  0  0  0  0  0  0  0
    8.0472   71.8701   69.6284 H   0  0  0  0  0  0  0  0  0  0  0  0
    5.9012   69.7654   69.0648 H   0  0  0  0  0  0  0  0  0  0  0  0
    5.6249   71.5518   69.1642 H   0  0  0  0  0  0  0  0  0  0  0  0
   -0.9823   66.2156   70.1580 H   0  0  0  0  0  0  0  0  0  0  0  0
   -0.3608   65.3882   68.6570 H   0  0  0  0  0  0  0  0  0  0  0  0
    1.9673   66.3344   69.6131 H   0  0  0  0  0  0  0  0  0  0  0  0
    1.0509   66.1473   71.1717 H   0  0  0  0  0  0  0  0  0  0  0  0
    1.3962   64.0528   69.1334 H   0  0  0  0  0  0  0  0  0  0  0  0
    2.7657   64.0014   71.7498 H   0  0  0  0  0  0  0  0  0  0  0  0
    3.0831   63.0007   70.2922 H   0  0  0  0  0  0  0  0  0  0  0  0
    3.5050   64.7468   70.2922 H   0  0  0  0  0  0  0  0  0  0  0  0
    0.4605   63.5949   71.8895 H   0  0  0  0  0  0  0  0  0  0  0  0
   -0.6384   63.8853   70.4985 H   0  0  0  0  0  0  0  0  0  0  0  0
    0.4526   62.4583   70.4985 H   0  0  0  0  0  0  0  0  0  0  0  0
  2  1  2  0
  3  2  1  0
  4  3  2  0
  5  4  1  0
  6  5  2  0
  6  1  1  0
  7  1  1  0
  8  7  1  0
  9  8  1  0
 11 10  1  0
 11  9  1  0
 12  4  1  0
 13 12  2  0
 14 12  1  0
 15 14  1  0
 16 15  1  0
 17 16  1  0
 18 17  1  0
 19 17  1  0
  2 20  1  0
  3 21  1  0
  5 22  1  0
  6 23  1  0
  7 24  1  0
  8 25  1  0
  8 26  1  0
  9 27  1  0
  9 28  1  0
 10 29  1  0
 10 30  1  0
 10 31  1  0
 11 32  1  0
 11 33  1  0
 15 34  1  0
 15 35  1  0
 16 36  1  0
 16 37  1  0
 17 38  1  0
 18 39  1  0
 18 40  1  0
 18 41  1  0
 19 42  1  0
 19 43  1  0
 19 44  1  0
M  CHG  1  17   1
M  END
>  <score>  (2) 
-7.431

$$$$
=
     RDKit          3D

 44 44  0  0  0  0  0  0  0  0999 V2000
    5.0580   69.7150   65.8430 C   0  0  0  0  0  0  0  0  0  0  0  0
    3.9660   69.8100   66.7180 C   0  0  0  0  0  0  0  0  0  0  0  0
    2.7900   69.0800   66.5090 C   0  0  0  0  0  0  0  0  0  0  0  0
    2.6950   68.2090   65.4200 C   0  0  0  0  0  0  0  0  0  0  0  0
    3.7860   68.0780   64.5560 C   0  0  0  0  0  0  0  0  0  0  0  0
    4.9570   68.8150   64.7770 C   0  0  0  0  0  0  0  0  0  0  0  0
    6.2240   70.4130   66.1600 N   0  0  0  0  0  0  0  0  0  0  0  0
    6.9290   70.1430   67.4100 C   0  0  0  0  0  0  0  0  0  0  0  0
    6.8480   71.3520   68.3480 C   0  0  0  0  0  0  0  0  0  0  0  0
    7.1310   70.3780   70.6550 C   0  0  0  0  0  0  0  0  0  0  0  0
    7.7680   71.2260   69.5650 C   0  0  0  0  0  0  0  0  0  0  0  0
    1.4820   67.3950   65.1560 C   0  0  0  0  0  0  0  0  0  0  0  0
    1.4910   66.1940   64.9160 O   0  0  0  0  0  0  0  0  0  0  0  0
    0.3510   68.1340   65.2560 O   0  0  0  0  0  0  0  0  0  0  0  0
   -0.3610   68.4120   64.0330 C   0  0  0  0  0  0  0  0  0  0  0  0
    0.2970   69.5230   63.1940 C   0  0  0  0  0  0  0  0  0  0  0  0
    0.6860   69.0430   61.8050 N   0  0  0  0  0  4  0  0  0  0  0  0
    0.0830   69.8820   60.7180 C   0  0  0  0  0  0  0  0  0  0  0  0
    2.1640   68.8670   61.6170 C   0  0  0  0  0  0  0  0  0  0  0  0
    4.0355   70.4754   67.5912 H   0  0  0  0  0  0  0  0  0  0  0  0
    1.9420   69.1917   67.2007 H   0  0  0  0  0  0  0  0  0  0  0  0
    3.7249   67.3925   63.6979 H   0  0  0  0  0  0  0  0  0  0  0  0
    5.8133   68.6833   64.0992 H   0  0  0  0  0  0  0  0  0  0  0  0
    6.5893   71.1225   65.5088 H   0  0  0  0  0  0  0  0  0  0  0  0
    6.4711   69.2724   67.9023 H   0  0  0  0  0  0  0  0  0  0  0  0
    7.9862   69.9404   67.1838 H   0  0  0  0  0  0  0  0  0  0  0  0
    7.1330   72.2528   67.7846 H   0  0  0  0  0  0  0  0  0  0  0  0
    5.8148   71.4113   68.7207 H   0  0  0  0  0  0  0  0  0  0  0  0
    7.4238   70.7678   71.6410 H   0  0  0  0  0  0  0  0  0  0  0  0
    6.0361   70.4158   70.5562 H   0  0  0  0  0  0  0  0  0  0  0  0
    7.4723   69.3370   70.5562 H   0  0  0  0  0  0  0  0  0  0  0  0
    7.9717   72.2301   69.9655 H   0  0  0  0  0  0  0  0  0  0  0  0
    8.7003   70.7373   69.2458 H   0  0  0  0  0  0  0  0  0  0  0  0
   -0.3963   67.4921   63.4309 H   0  0  0  0  0  0  0  0  0  0  0  0
   -1.3672   68.7601   64.3094 H   0  0  0  0  0  0  0  0  0  0  0  0
   -0.4122   70.3579   63.0941 H   0  0  0  0  0  0  0  0  0  0  0  0
    1.2158   69.8362   63.7115 H   0  0  0  0  0  0  0  0  0  0  0  0
    0.2790   68.1002   61.7259 H   0  0  0  0  0  0  0  0  0  0  0  0
   -0.5031   70.6975   61.1667 H   0  0  0  0  0  0  0  0  0  0  0  0
    0.8842   70.3061   60.0950 H   0  0  0  0  0  0  0  0  0  0  0  0
   -0.5744   69.2578   60.0950 H   0  0  0  0  0  0  0  0  0  0  0  0
    2.6543   68.8086   62.6000 H   0  0  0  0  0  0  0  0  0  0  0  0
    2.3545   67.9398   61.0566 H   0  0  0  0  0  0  0  0  0  0  0  0
    2.5669   69.7235   61.0566 H   0  0  0  0  0  0  0  0  0  0  0  0
  2  1  2  0
  3  2  1  0
  4  3  2  0
  5  4  1  0
  6  5  2  0
  6  1  1  0
  7  1  1  0
  8  7  1  0
  9  8  1  0
 11 10  1  0
 11  9  1  0
 12  4  1  0
 13 12  2  0
 14 12  1  0
 15 14  1  0
 16 15  1  0
 17 16  1  0
 18 17  1  0
 19 17  1  0
  2 20  1  0
  3 21  1  0
  5 22  1  0
  6 23  1  0
  7 24  1  0
  8 25  1  0
  8 26  1  0
  9 27  1  0
  9 28  1  0
 10 29  1  0
 10 30  1  0
 10 31  1  0
 11 32  1  0
 11 33  1  0
 15 34  1  0
 15 35  1  0
 16 36  1  0
 16 37  1  0
 17 38  1  0
 18 39  1  0
 18 40  1  0
 18 41  1  0
 19 42  1  0
 19 43  1  0
 19 44  1  0
M  CHG  1  17   1
M  END
>  <score>  (3) 
-7.345

$$$$
=
     RDKit          3D

 44 44  0  0  0  0  0  0  0  0999 V2000
    1.0380   68.9900   67.2330 C   0  0  0  0  0  0  0  0  0  0  0  0
    1.4550   68.5660   65.9630 C   0  0  0  0  0  0  0  0  0  0  0  0
    2.7530   68.8050   65.4960 C   0  0  0  0  0  0  0  0  0  0  0  0
    3.6780   69.4570   66.3160 C   0  0  0  0  0  0  0  0  0  0  0  0
    3.2890   69.8590   67.5970 C   0  0  0  0  0  0  0  0  0  0  0  0
    1.9870   69.6130   68.0510 C   0  0  0  0  0  0  0  0  0  0  0  0
   -0.2460   68.6460   67.6580 N   0  0  0  0  0  0  0  0  0  0  0  0
   -0.8160   67.3470   67.3110 C   0  0  0  0  0  0  0  0  0  0  0  0
   -0.8890   66.4410   68.5450 C   0  0  0  0  0  0  0  0  0  0  0  0
    0.1280   66.0550   70.8180 C   0  0  0  0  0  0  0  0  0  0  0  0
    0.3960   66.4600   69.3770 C   0  0  0  0  0  0  0  0  0  0  0  0
    5.0730   69.7240   65.8850 C   0  0  0  0  0  0  0  0  0  0  0  0
    5.8190   70.5380   66.4140 O   0  0  0  0  0  0  0  0  0  0  0  0
    5.4430   68.9210   64.8570 O   0  0  0  0  0  0  0  0  0  0  0  0
    5.4120   69.4950   63.5340 C   0  0  0  0  0  0  0  0  0  0  0  0
    5.7930   68.4880   62.4330 C   0  0  0  0  0  0  0  0  0  0  0  0
    4.5940   67.6960   61.9360 N   0  0  0  0  0  4  0  0  0  0  0  0
    4.3230   66.4810   62.7710 C   0  0  0  0  0  0  0  0  0  0  0  0
    3.3590   68.5250   61.7400 C   0  0  0  0  0  0  0  0  0  0  0  0
    0.7434   68.0315   65.3166 H   0  0  0  0  0  0  0  0  0  0  0  0
    3.0441   68.4804   64.4861 H   0  0  0  0  0  0  0  0  0  0  0  0
    4.0092   70.3712   68.2520 H   0  0  0  0  0  0  0  0  0  0  0  0
    1.7051   69.9154   69.0703 H   0  0  0  0  0  0  0  0  0  0  0  0
   -0.7949   69.3123   68.2198 H   0  0  0  0  0  0  0  0  0  0  0  0
   -1.8297   67.4930   66.9096 H   0  0  0  0  0  0  0  0  0  0  0  0
   -0.1729   66.8681   66.5579 H   0  0  0  0  0  0  0  0  0  0  0  0
   -1.7222   66.7784   69.1789 H   0  0  0  0  0  0  0  0  0  0  0  0
   -1.0356   65.4106   68.1889 H   0  0  0  0  0  0  0  0  0  0  0  0
    0.6057   66.7769   71.4967 H   0  0  0  0  0  0  0  0  0  0  0  0
   -0.9568   66.0432   70.9999 H   0  0  0  0  0  0  0  0  0  0  0  0
    0.5412   65.0519   70.9999 H   0  0  0  0  0  0  0  0  0  0  0  0
    0.8169   67.4762   69.3629 H   0  0  0  0  0  0  0  0  0  0  0  0
    1.1030   65.7395   68.9399 H   0  0  0  0  0  0  0  0  0  0  0  0
    4.3948   69.8636   63.3354 H   0  0  0  0  0  0  0  0  0  0  0  0
    6.1544   70.3064   63.5095 H   0  0  0  0  0  0  0  0  0  0  0  0
    6.2295   69.0379   61.5862 H   0  0  0  0  0  0  0  0  0  0  0  0
    6.5125   67.7755   62.8627 H   0  0  0  0  0  0  0  0  0  0  0  0
    4.8625   67.3683   60.9971 H   0  0  0  0  0  0  0  0  0  0  0  0
    4.3825   66.7477   63.8365 H   0  0  0  0  0  0  0  0  0  0  0  0
    3.3172   66.0974   62.5446 H   0  0  0  0  0  0  0  0  0  0  0  0
    5.0704   65.7063   62.5446 H   0  0  0  0  0  0  0  0  0  0  0  0
    2.9447   68.8031   62.7203 H   0  0  0  0  0  0  0  0  0  0  0  0
    3.6140   69.4356   61.1780 H   0  0  0  0  0  0  0  0  0  0  0  0
    2.6128   67.9441   61.1780 H   0  0  0  0  0  0  0  0  0  0  0  0
  2  1  2  0
  3  2  1  0
  4  3  2  0
  5  4  1  0
  6  5  2  0
  6  1  1  0
  7  1  1  0
  8  7  1  0
  9  8  1  0
 11 10  1  0
 11  9  1  0
 12  4  1  0
 13 12  2  0
 14 12  1  0
 15 14  1  0
 16 15  1  0
 17 16  1  0
 18 17  1  0
 19 17  1  0
  2 20  1  0
  3 21  1  0
  5 22  1  0
  6 23  1  0
  7 24  1  0
  8 25  1  0
  8 26  1  0
  9 27  1  0
  9 28  1  0
 10 29  1  0
 10 30  1  0
 10 31  1  0
 11 32  1  0
 11 33  1  0
 15 34  1  0
 15 35  1  0
 16 36  1  0
 16 37  1  0
 17 38  1  0
 18 39  1  0
 18 40  1  0
 18 41  1  0
 19 42  1  0
 19 43  1  0
 19 44  1  0
M  CHG  1  17   1
M  END
>  <score>  (4) 
-7.263

$$$$
=
     RDKit          3D

 44 44  0  0  0  0  0  0  0  0999 V2000
    5.0190   68.9500   64.8130 C   0  0  0  0  0  0  0  0  0  0  0  0
    5.3970   69.7250   65.9200 C   0  0  0  0  0  0  0  0  0  0  0  0
    4.5080   69.9930   66.9670 C   0  0  0  0  0  0  0  0  0  0  0  0
    3.2160   69.4610   66.9380 C   0  0  0  0  0  0  0  0  0  0  0  0
    2.8330   68.6620   65.8580 C   0  0  0  0  0  0  0  0  0  0  0  0
    3.7330   68.4010   64.8160 C   0  0  0  0  0  0  0  0  0  0  0  0
    5.9840   68.6600   63.8470 N   0  0  0  0  0  0  0  0  0  0  0  0
    5.7110   68.9050   62.4340 C   0  0  0  0  0  0  0  0  0  0  0  0
    4.5930   67.9860   61.9320 C   0  0  0  0  0  0  0  0  0  0  0  0
    2.2010   68.7670   61.7980 C   0  0  0  0  0  0  0  0  0  0  0  0
    3.5460   68.7220   61.0910 C   0  0  0  0  0  0  0  0  0  0  0  0
    2.2350   69.6960   68.0270 C   0  0  0  0  0  0  0  0  0  0  0  0
    2.1980   70.7030   68.7230 O   0  0  0  0  0  0  0  0  0  0  0  0
    1.3480   68.6770   68.1300 O   0  0  0  0  0  0  0  0  0  0  0  0
   -0.0360   68.9820   67.8600 C   0  0  0  0  0  0  0  0  0  0  0  0
   -0.6200   68.1490   66.7040 C   0  0  0  0  0  0  0  0  0  0  0  0
   -1.2590   69.0180   65.6320 N   0  0  0  0  0  4  0  0  0  0  0  0
   -0.6240   68.8280   64.2870 C   0  0  0  0  0  0  0  0  0  0  0  0
   -2.7530   68.8980   65.5650 C   0  0  0  0  0  0  0  0  0  0  0  0
    6.4178   70.1321   65.9660 H   0  0  0  0  0  0  0  0  0  0  0  0
    4.8258   70.6217   67.8119 H   0  0  0  0  0  0  0  0  0  0  0  0
    1.8196   68.2355   65.8253 H   0  0  0  0  0  0  0  0  0  0  0  0
    3.4218   67.7517   63.9844 H   0  0  0  0  0  0  0  0  0  0  0  0
    6.8939   68.2709   64.1328 H   0  0  0  0  0  0  0  0  0  0  0  0
    5.4038   69.9529   62.3019 H   0  0  0  0  0  0  0  0  0  0  0  0
    6.6242   68.6996   61.8563 H   0  0  0  0  0  0  0  0  0  0  0  0
    5.0416   67.1919   61.3170 H   0  0  0  0  0  0  0  0  0  0  0  0
    4.0791   67.5799   62.8157 H   0  0  0  0  0  0  0  0  0  0  0  0
    2.3586   68.7617   62.8866 H   0  0  0  0  0  0  0  0  0  0  0  0
    1.6656   69.6836   61.5095 H   0  0  0  0  0  0  0  0  0  0  0  0
    1.6055   67.8883   61.5095 H   0  0  0  0  0  0  0  0  0  0  0  0
    3.4280   68.2008   60.1295 H   0  0  0  0  0  0  0  0  0  0  0  0
    3.8904   69.7549   60.9344 H   0  0  0  0  0  0  0  0  0  0  0  0
   -0.6230   68.7814   68.7684 H   0  0  0  0  0  0  0  0  0  0  0  0
   -0.0885   70.0399   67.5632 H   0  0  0  0  0  0  0  0  0  0  0  0
    0.1899   67.5616   66.2469 H   0  0  0  0  0  0  0  0  0  0  0  0
   -1.4028   67.4979   67.1203 H   0  0  0  0  0  0  0  0  0  0  0  0
   -1.0696   69.9866   65.9267 H   0  0  0  0  0  0  0  0  0  0  0  0
    0.4225   68.5149   64.4165 H   0  0  0  0  0  0  0  0  0  0  0  0
   -1.1718   68.0544   63.7289 H   0  0  0  0  0  0  0  0  0  0  0  0
   -0.6569   69.7753   63.7289 H   0  0  0  0  0  0  0  0  0  0  0  0
   -3.1643   68.8650   66.5847 H   0  0  0  0  0  0  0  0  0  0  0  0
   -3.1670   69.7658   65.0306 H   0  0  0  0  0  0  0  0  0  0  0  0
   -3.0231   67.9753   65.0306 H   0  0  0  0  0  0  0  0  0  0  0  0
  2  1  2  0
  3  2  1  0
  4  3  2  0
  5  4  1  0
  6  5  2  0
  6  1  1  0
  7  1  1  0
  8  7  1  0
  9  8  1  0
 11 10  1  0
 11  9  1  0
 12  4  1  0
 13 12  2  0
 14 12  1  0
 15 14  1  0
 16 15  1  0
 17 16  1  0
 18 17  1  0
 19 17  1  0
  2 20  1  0
  3 21  1  0
  5 22  1  0
  6 23  1  0
  7 24  1  0
  8 25  1  0
  8 26  1  0
  9 27  1  0
  9 28  1  0
 10 29  1  0
 10 30  1  0
 10 31  1  0
 11 32  1  0
 11 33  1  0
 15 34  1  0
 15 35  1  0
 16 36  1  0
 16 37  1  0
 17 38  1  0
 18 39  1  0
 18 40  1  0
 18 41  1  0
 19 42  1  0
 19 43  1  0
 19 44  1  0
M  CHG  1  17   1
M  END
>  <score>  (5) 
-6.866

$$$$
=
     RDKit          3D

 44 44  0  0  0  0  0  0  0  0999 V2000
    3.3150   68.9550   65.6770 C   0  0  0  0  0  0  0  0  0  0  0  0
    3.0980   69.4640   66.9660 C   0  0  0  0  0  0  0  0  0  0  0  0
    2.1320   68.9180   67.8200 C   0  0  0  0  0  0  0  0  0  0  0  0
    1.3750   67.8200   67.4030 C   0  0  0  0  0  0  0  0  0  0  0  0
    1.6000   67.2810   66.1330 C   0  0  0  0  0  0  0  0  0  0  0  0
    2.5700   67.8370   65.2890 C   0  0  0  0  0  0  0  0  0  0  0  0
    4.3490   69.5010   64.9150 N   0  0  0  0  0  0  0  0  0  0  0  0
    5.5060   68.6890   64.5510 C   0  0  0  0  0  0  0  0  0  0  0  0
    5.3520   68.1310   63.1330 C   0  0  0  0  0  0  0  0  0  0  0  0
    3.4600   68.6600   61.5540 C   0  0  0  0  0  0  0  0  0  0  0  0
    4.7700   69.1510   62.1500 C   0  0  0  0  0  0  0  0  0  0  0  0
    0.3490   67.1860   68.2680 C   0  0  0  0  0  0  0  0  0  0  0  0
   -0.7570   66.8290   67.8850 O   0  0  0  0  0  0  0  0  0  0  0  0
    0.8010   67.0080   69.5330 O   0  0  0  0  0  0  0  0  0  0  0  0
    0.3900   65.8030   70.2110 C   0  0  0  0  0  0  0  0  0  0  0  0
    1.5570   64.8320   70.4710 C   0  0  0  0  0  0  0  0  0  0  0  0
    1.1460   63.3780   70.2980 N   0  0  0  0  0  4  0  0  0  0  0  0
    2.3040   62.4920   69.9460 C   0  0  0  0  0  0  0  0  0  0  0  0
    0.3570   62.8300   71.4510 C   0  0  0  0  0  0  0  0  0  0  0  0
    3.7024   70.3142   67.3150 H   0  0  0  0  0  0  0  0  0  0  0  0
    1.9693   69.3526   68.8173 H   0  0  0  0  0  0  0  0  0  0  0  0
    1.0120   66.4152   65.7944 H   0  0  0  0  0  0  0  0  0  0  0  0
    2.7491   67.3855   64.3021 H   0  0  0  0  0  0  0  0  0  0  0  0
    4.2953   70.4826   64.6077 H   0  0  0  0  0  0  0  0  0  0  0  0
    6.4124   69.3105   64.5979 H   0  0  0  0  0  0  0  0  0  0  0  0
    5.5830   67.8477   65.2554 H   0  0  0  0  0  0  0  0  0  0  0  0
    6.3421   67.8189   62.7694 H   0  0  0  0  0  0  0  0  0  0  0  0
    4.6496   67.2861   63.1857 H   0  0  0  0  0  0  0  0  0  0  0  0
    2.7635   68.3990   62.3644 H   0  0  0  0  0  0  0  0  0  0  0  0
    3.0192   69.4539   60.9332 H   0  0  0  0  0  0  0  0  0  0  0  0
    3.6497   67.7719   60.9332 H   0  0  0  0  0  0  0  0  0  0  0  0
    5.4926   69.3183   61.3377 H   0  0  0  0  0  0  0  0  0  0  0  0
    4.5740   70.0858   62.6957 H   0  0  0  0  0  0  0  0  0  0  0  0
   -0.0580   66.0794   71.1768 H   0  0  0  0  0  0  0  0  0  0  0  0
   -0.3291   65.2866   69.5581 H   0  0  0  0  0  0  0  0  0  0  0  0
    2.3689   65.0569   69.7637 H   0  0  0  0  0  0  0  0  0  0  0  0
    1.8832   64.9684   71.5126 H   0  0  0  0  0  0  0  0  0  0  0  0
    0.5036   63.3777   69.4929 H   0  0  0  0  0  0  0  0  0  0  0  0
    2.7804   62.1275   70.8681 H   0  0  0  0  0  0  0  0  0  0  0  0
    1.9447   61.6361   69.3559 H   0  0  0  0  0  0  0  0  0  0  0  0
    3.0362   63.0627   69.3559 H   0  0  0  0  0  0  0  0  0  0  0  0
    0.8187   63.1506   72.3966 H   0  0  0  0  0  0  0  0  0  0  0  0
   -0.6753   63.2065   71.4008 H   0  0  0  0  0  0  0  0  0  0  0  0
    0.3494   61.7312   71.4008 H   0  0  0  0  0  0  0  0  0  0  0  0
  2  1  2  0
  3  2  1  0
  4  3  2  0
  5  4  1  0
  6  5  2  0
  6  1  1  0
  7  1  1  0
  8  7  1  0
  9  8  1  0
 11 10  1  0
 11  9  1  0
 12  4  1  0
 13 12  2  0
 14 12  1  0
 15 14  1  0
 16 15  1  0
 17 16  1  0
 18 17  1  0
 19 17  1  0
  2 20  1  0
  3 21  1  0
  5 22  1  0
  6 23  1  0
  7 24  1  0
  8 25  1  0
  8 26  1  0
  9 27  1  0
  9 28  1  0
 10 29  1  0
 10 30  1  0
 10 31  1  0
 11 32  1  0
 11 33  1  0
 15 34  1  0
 15 35  1  0
 16 36  1  0
 16 37  1  0
 17 38  1  0
 18 39  1  0
 18 40  1  0
 18 41  1  0
 19 42  1  0
 19 43  1  0
 19 44  1  0
M  CHG  1  17   1
M  END
>  <score>  (6) 
-6.553

$$$$
=
     RDKit          3D

 44 44  0  0  0  0  0  0  0  0999 V2000
    0.1420   66.5450   69.3470 C   0  0  0  0  0  0  0  0  0  0  0  0
    1.1730   67.2790   68.7420 C   0  0  0  0  0  0  0  0  0  0  0  0
    1.0140   67.8700   67.4830 C   0  0  0  0  0  0  0  0  0  0  0  0
   -0.2050   67.7570   66.8090 C   0  0  0  0  0  0  0  0  0  0  0  0
   -1.2530   67.0550   67.4110 C   0  0  0  0  0  0  0  0  0  0  0  0
   -1.0810   66.4690   68.6720 C   0  0  0  0  0  0  0  0  0  0  0  0
    0.3480   66.0530   70.6360 N   0  0  0  0  0  0  0  0  0  0  0  0
    0.8370   64.6920   70.8380 C   0  0  0  0  0  0  0  0  0  0  0  0
    2.3460   64.6160   70.5820 C   0  0  0  0  0  0  0  0  0  0  0  0
    4.2960   63.1040   70.0700 C   0  0  0  0  0  0  0  0  0  0  0  0
    2.7860   63.2690   70.0010 C   0  0  0  0  0  0  0  0  0  0  0  0
   -0.4400   68.3750   65.4800 C   0  0  0  0  0  0  0  0  0  0  0  0
   -1.3460   69.1600   65.2310 O   0  0  0  0  0  0  0  0  0  0  0  0
    0.5010   68.0010   64.5800 O   0  0  0  0  0  0  0  0  0  0  0  0
    0.8420   68.9560   63.5540 C   0  0  0  0  0  0  0  0  0  0  0  0
    1.9960   68.4820   62.6510 C   0  0  0  0  0  0  0  0  0  0  0  0
    3.2870   68.2710   63.4270 N   0  0  0  0  0  4  0  0  0  0  0  0
    3.5580   66.8230   63.7070 C   0  0  0  0  0  0  0  0  0  0  0  0
    4.4770   68.9540   62.8190 C   0  0  0  0  0  0  0  0  0  0  0  0
    2.1310   67.3931   69.2704 H   0  0  0  0  0  0  0  0  0  0  0  0
    1.8475   68.4226   67.0248 H   0  0  0  0  0  0  0  0  0  0  0  0
   -2.2183   66.9621   66.8918 H   0  0  0  0  0  0  0  0  0  0  0  0
   -1.9236   65.9391   69.1402 H   0  0  0  0  0  0  0  0  0  0  0  0
    0.1540   66.6534   71.4501 H   0  0  0  0  0  0  0  0  0  0  0  0
    0.6303   64.3838   71.8735 H   0  0  0  0  0  0  0  0  0  0  0  0
    0.3239   64.0229   70.1315 H   0  0  0  0  0  0  0  0  0  0  0  0
    2.6220   65.4107   69.8733 H   0  0  0  0  0  0  0  0  0  0  0  0
    2.8513   64.7376   71.5515 H   0  0  0  0  0  0  0  0  0  0  0  0
    4.6133   63.0693   71.1227 H   0  0  0  0  0  0  0  0  0  0  0  0
    4.5860   62.1688   69.5686 H   0  0  0  0  0  0  0  0  0  0  0  0
    4.7811   63.9545   69.5686 H   0  0  0  0  0  0  0  0  0  0  0  0
    2.4669   63.2108   68.9499 H   0  0  0  0  0  0  0  0  0  0  0  0
    2.3218   62.4671   70.5938 H   0  0  0  0  0  0  0  0  0  0  0  0
   -0.0453   69.1291   62.9272 H   0  0  0  0  0  0  0  0  0  0  0  0
    1.1744   69.8757   64.0576 H   0  0  0  0  0  0  0  0  0  0  0  0
    1.7079   67.5313   62.1785 H   0  0  0  0  0  0  0  0  0  0  0  0
    2.1789   69.2647   61.9000 H   0  0  0  0  0  0  0  0  0  0  0  0
    3.1316   68.7338   64.3339 H   0  0  0  0  0  0  0  0  0  0  0  0
    3.5886   66.6593   64.7943 H   0  0  0  0  0  0  0  0  0  0  0  0
    2.7593   66.2085   63.2660 H   0  0  0  0  0  0  0  0  0  0  0  0
    4.5249   66.5390   63.2660 H   0  0  0  0  0  0  0  0  0  0  0  0
    5.1321   69.3300   63.6186 H   0  0  0  0  0  0  0  0  0  0  0  0
    5.0326   68.2373   62.1964 H   0  0  0  0  0  0  0  0  0  0  0  0
    4.1385   69.7953   62.1964 H   0  0  0  0  0  0  0  0  0  0  0  0
  2  1  2  0
  3  2  1  0
  4  3  2  0
  5  4  1  0
  6  5  2  0
  6  1  1  0
  7  1  1  0
  8  7  1  0
  9  8  1  0
 11 10  1  0
 11  9  1  0
 12  4  1  0
 13 12  2  0
 14 12  1  0
 15 14  1  0
 16 15  1  0
 17 16  1  0
 18 17  1  0
 19 17  1  0
  2 20  1  0
  3 21  1  0
  5 22  1  0
  6 23  1  0
  7 24  1  0
  8 25  1  0
  8 26  1  0
  9 27  1  0
  9 28  1  0
 10 29  1  0
 10 30  1  0
 10 31  1  0
 11 32  1  0
 11 33  1  0
 15 34  1  0
 15 35  1  0
 16 36  1  0
 16 37  1  0
 17 38  1  0
 18 39  1  0
 18 40  1  0
 18 41  1  0
 19 42  1  0
 19 43  1  0
 19 44  1  0
M  CHG  1  17   1
M  END
>  <score>  (7) 
-6.437

$$$$
=
     RDKit          3D

 44 44  0  0  0  0  0  0  0  0999 V2000
    2.7220   61.8990   71.0730 C   0  0  0  0  0  0  0  0  0  0  0  0
    3.3580   63.0550   70.5970 C   0  0  0  0  0  0  0  0  0  0  0  0
    2.6650   64.2590   70.4240 C   0  0  0  0  0  0  0  0  0  0  0  0
    1.3100   64.3360   70.7570 C   0  0  0  0  0  0  0  0  0  0  0  0
    0.6670   63.2020   71.2630 C   0  0  0  0  0  0  0  0  0  0  0  0
    1.3730   62.0040   71.4300 C   0  0  0  0  0  0  0  0  0  0  0  0
    3.4960   60.7590   71.2930 N   0  0  0  0  0  0  0  0  0  0  0  0
    3.5260   59.6850   70.3040 C   0  0  0  0  0  0  0  0  0  0  0  0
    3.3630   58.3210   70.9820 C   0  0  0  0  0  0  0  0  0  0  0  0
    1.8380   57.1360   72.6020 C   0  0  0  0  0  0  0  0  0  0  0  0
    2.6300   58.4050   72.3240 C   0  0  0  0  0  0  0  0  0  0  0  0
    0.5250   65.5880   70.6140 C   0  0  0  0  0  0  0  0  0  0  0  0
   -0.1850   66.0660   71.4890 O   0  0  0  0  0  0  0  0  0  0  0  0
    0.7250   66.1690   69.4060 O   0  0  0  0  0  0  0  0  0  0  0  0
   -0.4330   66.7190   68.7450 C   0  0  0  0  0  0  0  0  0  0  0  0
   -0.0710   67.7390   67.6480 C   0  0  0  0  0  0  0  0  0  0  0  0
   -1.3020   68.3910   67.0380 N   0  0  0  0  0  4  0  0  0  0  0  0
   -1.0830   68.8120   65.6160 C   0  0  0  0  0  0  0  0  0  0  0  0
   -2.5560   67.5820   67.1940 C   0  0  0  0  0  0  0  0  0  0  0  0
    4.4299   63.0144   70.3531 H   0  0  0  0  0  0  0  0  0  0  0  0
    3.1860   65.1426   70.0268 H   0  0  0  0  0  0  0  0  0  0  0  0
   -0.3987   63.2511   71.5312 H   0  0  0  0  0  0  0  0  0  0  0  0
    0.8568   61.1282   71.8501 H   0  0  0  0  0  0  0  0  0  0  0  0
    4.0492   60.6746   72.1577 H   0  0  0  0  0  0  0  0  0  0  0  0
    2.7056   59.8319   69.5862 H   0  0  0  0  0  0  0  0  0  0  0  0
    4.4955   59.7087   69.7849 H   0  0  0  0  0  0  0  0  0  0  0  0
    2.7923   57.6619   70.3113 H   0  0  0  0  0  0  0  0  0  0  0  0
    4.3714   57.9294   71.1812 H   0  0  0  0  0  0  0  0  0  0  0  0
    1.7475   56.9909   73.6886 H   0  0  0  0  0  0  0  0  0  0  0  0
    0.8350   57.2253   72.1592 H   0  0  0  0  0  0  0  0  0  0  0  0
    2.3589   56.2743   72.1592 H   0  0  0  0  0  0  0  0  0  0  0  0
    1.9393   59.2608   72.3020 H   0  0  0  0  0  0  0  0  0  0  0  0
    3.3781   58.5288   73.1209 H   0  0  0  0  0  0  0  0  0  0  0  0
   -0.9986   65.8952   68.2851 H   0  0  0  0  0  0  0  0  0  0  0  0
   -1.0256   67.2491   69.5052 H   0  0  0  0  0  0  0  0  0  0  0  0
    0.5628   68.5226   68.0887 H   0  0  0  0  0  0  0  0  0  0  0  0
    0.4561   67.1995   66.8473 H   0  0  0  0  0  0  0  0  0  0  0  0
   -1.4513   69.2473   67.5907 H   0  0  0  0  0  0  0  0  0  0  0  0
   -0.5754   69.7877   65.5965 H   0  0  0  0  0  0  0  0  0  0  0  0
   -0.4596   68.0641   65.1040 H   0  0  0  0  0  0  0  0  0  0  0  0
   -2.0532   68.8931   65.1040 H   0  0  0  0  0  0  0  0  0  0  0  0
   -2.7718   67.4428   68.2636 H   0  0  0  0  0  0  0  0  0  0  0  0
   -3.3946   68.1098   66.7164 H   0  0  0  0  0  0  0  0  0  0  0  0
   -2.4209   66.6004   66.7164 H   0  0  0  0  0  0  0  0  0  0  0  0
  2  1  2  0
  3  2  1  0
  4  3  2  0
  5  4  1  0
  6  5  2  0
  6  1  1  0
  7  1  1  0
  8  7  1  0
  9  8  1  0
 11 10  1  0
 11  9  1  0
 12  4  1  0
 13 12  2  0
 14 12  1  0
 15 14  1  0
 16 15  1  0
 17 16  1  0
 18 17  1  0
 19 17  1  0
  2 20  1  0
  3 21  1  0
  5 22  1  0
  6 23  1  0
  7 24  1  0
  8 25  1  0
  8 26  1  0
  9 27  1  0
  9 28  1  0
 10 29  1  0
 10 30  1  0
 10 31  1  0
 11 32  1  0
 11 33  1  0
 15 34  1  0
 15 35  1  0
 16 36  1  0
 16 37  1  0
 17 38  1  0
 18 39  1  0
 18 40  1  0
 18 41  1  0
 19 42  1  0
 19 43  1  0
 19 44  1  0
M  CHG  1  17   1
M  END
>  <score>  (8) 
-6.434

$$$$
=
     RDKit          3D

 44 44  0  0  0  0  0  0  0  0999 V2000
    1.4950   64.0720   70.5690 C   0  0  0  0  0  0  0  0  0  0  0  0
    2.8650   64.1700   70.2850 C   0  0  0  0  0  0  0  0  0  0  0  0
    3.7630   63.1550   70.6340 C   0  0  0  0  0  0  0  0  0  0  0  0
    3.2950   61.9950   71.2580 C   0  0  0  0  0  0  0  0  0  0  0  0
    1.9280   61.8670   71.5200 C   0  0  0  0  0  0  0  0  0  0  0  0
    1.0400   62.8910   71.1650 C   0  0  0  0  0  0  0  0  0  0  0  0
    0.6510   65.0890   70.1200 N   0  0  0  0  0  0  0  0  0  0  0  0
    1.1610   66.4440   69.9340 C   0  0  0  0  0  0  0  0  0  0  0  0
    0.4850   67.1170   68.7340 C   0  0  0  0  0  0  0  0  0  0  0  0
   -1.5410   67.2280   67.2390 C   0  0  0  0  0  0  0  0  0  0  0  0
   -0.9450   66.6230   68.5010 C   0  0  0  0  0  0  0  0  0  0  0  0
    4.1950   60.8770   71.6360 C   0  0  0  0  0  0  0  0  0  0  0  0
    4.8850   60.2440   70.8470 O   0  0  0  0  0  0  0  0  0  0  0  0
    4.1980   60.6670   72.9750 O   0  0  0  0  0  0  0  0  0  0  0  0
    4.1370   59.2980   73.4240 C   0  0  0  0  0  0  0  0  0  0  0  0
    2.6970   58.7570   73.5080 C   0  0  0  0  0  0  0  0  0  0  0  0
    2.5530   57.3960   72.8450 N   0  0  0  0  0  4  0  0  0  0  0  0
    1.2770   56.7050   73.2250 C   0  0  0  0  0  0  0  0  0  0  0  0
    2.7500   57.4230   71.3570 C   0  0  0  0  0  0  0  0  0  0  0  0
    3.2434   65.0680   69.7747 H   0  0  0  0  0  0  0  0  0  0  0  0
    4.8354   63.2698   70.4176 H   0  0  0  0  0  0  0  0  0  0  0  0
    1.5473   60.9574   72.0075 H   0  0  0  0  0  0  0  0  0  0  0  0
   -0.0353   62.7639   71.3586 H   0  0  0  0  0  0  0  0  0  0  0  0
   -0.3377   64.8821   69.9187 H   0  0  0  0  0  0  0  0  0  0  0  0
    0.9584   67.0337   70.8402 H   0  0  0  0  0  0  0  0  0  0  0  0
    2.2437   66.3920   69.7469 H   0  0  0  0  0  0  0  0  0  0  0  0
    0.4569   68.2024   68.9103 H   0  0  0  0  0  0  0  0  0  0  0  0
    1.0719   66.8624   67.8392 H   0  0  0  0  0  0  0  0  0  0  0  0
   -2.2885   67.9868   67.5138 H   0  0  0  0  0  0  0  0  0  0  0  0
   -0.7429   67.6977   66.6453 H   0  0  0  0  0  0  0  0  0  0  0  0
   -2.0226   66.4371   66.6453 H   0  0  0  0  0  0  0  0  0  0  0  0
   -1.5669   66.9072   69.3626 H   0  0  0  0  0  0  0  0  0  0  0  0
   -0.9193   65.5297   68.3827 H   0  0  0  0  0  0  0  0  0  0  0  0
    4.7062   58.6725   72.7207 H   0  0  0  0  0  0  0  0  0  0  0  0
    4.5613   59.2646   74.4383 H   0  0  0  0  0  0  0  0  0  0  0  0
    2.4142   58.6664   74.5672 H   0  0  0  0  0  0  0  0  0  0  0  0
    2.0408   59.4618   72.9763 H   0  0  0  0  0  0  0  0  0  0  0  0
    3.3299   56.8335   73.2204 H   0  0  0  0  0  0  0  0  0  0  0  0
    1.1961   56.6612   74.3211 H   0  0  0  0  0  0  0  0  0  0  0  0
    0.4219   57.2633   72.8163 H   0  0  0  0  0  0  0  0  0  0  0  0
    1.2773   55.6838   72.8163 H   0  0  0  0  0  0  0  0  0  0  0  0
    3.8165   57.5692   71.1309 H   0  0  0  0  0  0  0  0  0  0  0  0
    2.4109   56.4700   70.9249 H   0  0  0  0  0  0  0  0  0  0  0  0
    2.1669   58.2496   70.9249 H   0  0  0  0  0  0  0  0  0  0  0  0
  2  1  2  0
  3  2  1  0
  4  3  2  0
  5  4  1  0
  6  5  2  0
  6  1  1  0
  7  1  1  0
  8  7  1  0
  9  8  1  0
 11 10  1  0
 11  9  1  0
 12  4  1  0
 13 12  2  0
 14 12  1  0
 15 14  1  0
 16 15  1  0
 17 16  1  0
 18 17  1  0
 19 17  1  0
  2 20  1  0
  3 21  1  0
  5 22  1  0
  6 23  1  0
  7 24  1  0
  8 25  1  0
  8 26  1  0
  9 27  1  0
  9 28  1  0
 10 29  1  0
 10 30  1  0
 10 31  1  0
 11 32  1  0
 11 33  1  0
 15 34  1  0
 15 35  1  0
 16 36  1  0
 16 37  1  0
 17 38  1  0
 18 39  1  0
 18 40  1  0
 18 41  1  0
 19 42  1  0
 19 43  1  0
 19 44  1  0
M  CHG  1  17   1
M  END
>  <score>  (9) 
-6.388

$$$$
