=
     RDKit          3D

 17 17  0  0  0  0  0  0  0  0999 V2000
    2.7280   68.8360   66.4200 C   0  0  0  0  0  0  0  0  0  0  0  0
    3.9350   69.1800   65.8070 C   0  0  0  0  0  0  0  0  0  0  0  0
    4.8920   69.9400   66.4910 C   0  0  0  0  0  0  0  0  0  0  0  0
    4.6470   70.4090   67.7910 C   0  0  0  0  0  0  0  0  0  0  0  0
    3.4040   70.1100   68.3670 C   0  0  0  0  0  0  0  0  0  0  0  0
    2.4480   69.3550   67.6860 C   0  0  0  0  0  0  0  0  0  0  0  0
    1.7330   68.1580   65.6930 N   0  0  0  0  0  0  0  0  0  0  0  0
    5.6850   71.2200   68.5280 C   0  0  0  0  0  0  0  0  0  0  0  0
    6.2360   70.6390   69.5230 O   0  0  0  0  0  0  0  0  0  0  0  0
    5.9330   72.3930   68.1140 O   0  0  0  0  0  1  0  0  0  0  0  0
    3.0690   70.5510   69.6240 O   0  0  0  0  0  0  0  0  0  0  0  0
    4.1359   68.8507   64.7768 H   0  0  0  0  0  0  0  0  0  0  0  0
    5.8496   70.1728   66.0023 H   0  0  0  0  0  0  0  0  0  0  0  0
    1.4680   69.1676   68.1492 H   0  0  0  0  0  0  0  0  0  0  0  0
    0.8441   67.9059   66.1483 H   0  0  0  0  0  0  0  0  0  0  0  0
    1.8932   67.9136   64.7053 H   0  0  0  0  0  0  0  0  0  0  0  0
    2.1847   70.3261   70.0081 H   0  0  0  0  0  0  0  0  0  0  0  0
  2  1  2  0
  3  2  1  0
  4  3  2  0
  5  4  1  0
  6  5  2  0
  6  1  1  0
  7  1  1  0
  8  4  1  0
  9  8  2  0
 10  8  1  0
 11  5  1  0
  2 12  1  0
  3 13  1  0
  6 14  1  0
  7 15  1  0
  7 16  1  0
 11 17  1  0
M  CHG  1  10  -1
M  END
>  <score>  (1) 
-6.784

$$$$
=
     RDKit          3D

 17 17  0  0  0  0  0  0  0  0999 V2000
    3.5480   70.0410   68.2770 C   0  0  0  0  0  0  0  0  0  0  0  0
    2.7190   69.4570   67.3170 C   0  0  0  0  0  0  0  0  0  0  0  0
    3.2280   69.0750   66.0700 C   0  0  0  0  0  0  0  0  0  0  0  0
    4.5710   69.3070   65.7370 C   0  0  0  0  0  0  0  0  0  0  0  0
    5.3740   69.9540   66.6860 C   0  0  0  0  0  0  0  0  0  0  0  0
    4.8680   70.3380   67.9290 C   0  0  0  0  0  0  0  0  0  0  0  0
    3.0090   70.5110   69.4870 N   0  0  0  0  0  0  0  0  0  0  0  0
    5.1190   68.8860   64.3950 C   0  0  0  0  0  0  0  0  0  0  0  0
    5.0850   67.6330   64.1520 O   0  0  0  0  0  0  0  0  0  0  0  0
    5.5610   69.7880   63.6190 O   0  0  0  0  0  1  0  0  0  0  0  0
    6.6930   70.2460   66.4360 O   0  0  0  0  0  0  0  0  0  0  0  0
    1.6547   69.2954   67.5430 H   0  0  0  0  0  0  0  0  0  0  0  0
    2.5654   68.5859   65.3408 H   0  0  0  0  0  0  0  0  0  0  0  0
    5.5124   70.8776   68.6387 H   0  0  0  0  0  0  0  0  0  0  0  0
    3.6243   70.9411   70.1922 H   0  0  0  0  0  0  0  0  0  0  0  0
    1.9987   70.4253   69.6685 H   0  0  0  0  0  0  0  0  0  0  0  0
    7.2377   70.7039   67.1243 H   0  0  0  0  0  0  0  0  0  0  0  0
  2  1  2  0
  3  2  1  0
  4  3  2  0
  5  4  1  0
  6  5  2  0
  6  1  1  0
  7  1  1  0
  8  4  1  0
  9  8  2  0
 10  8  1  0
 11  5  1  0
  2 12  1  0
  3 13  1  0
  6 14  1  0
  7 15  1  0
  7 16  1  0
 11 17  1  0
M  CHG  1  10  -1
M  END
>  <score>  (2) 
-6.614

$$$$
=
     RDKit          3D

 17 17  0  0  0  0  0  0  0  0999 V2000
    5.4010   70.1790   66.8600 C   0  0  0  0  0  0  0  0  0  0  0  0
    4.7140   69.5170   65.8410 C   0  0  0  0  0  0  0  0  0  0  0  0
    3.3820   69.1230   66.0160 C   0  0  0  0  0  0  0  0  0  0  0  0
    2.7170   69.3450   67.2330 C   0  0  0  0  0  0  0  0  0  0  0  0
    3.4420   69.9520   68.2680 C   0  0  0  0  0  0  0  0  0  0  0  0
    4.7710   70.3430   68.0950 C   0  0  0  0  0  0  0  0  0  0  0  0
    6.7660   70.4820   66.7120 N   0  0  0  0  0  0  0  0  0  0  0  0
    1.2780   68.9280   67.4150 C   0  0  0  0  0  0  0  0  0  0  0  0
    0.4850   69.8410   67.8230 O   0  0  0  0  0  0  0  0  0  0  0  0
    0.9660   67.7260   67.1530 O   0  0  0  0  0  1  0  0  0  0  0  0
    2.8810   70.1840   69.5000 O   0  0  0  0  0  0  0  0  0  0  0  0
    5.2245   69.3026   64.8905 H   0  0  0  0  0  0  0  0  0  0  0  0
    2.8486   68.6325   65.1884 H   0  0  0  0  0  0  0  0  0  0  0  0
    5.3253   70.7831   68.9371 H   0  0  0  0  0  0  0  0  0  0  0  0
    7.2698   70.9706   67.4659 H   0  0  0  0  0  0  0  0  0  0  0  0
    7.2622   70.2154   65.8497 H   0  0  0  0  0  0  0  0  0  0  0  0
    3.4150   70.6144   70.2139 H   0  0  0  0  0  0  0  0  0  0  0  0
  2  1  2  0
  3  2  1  0
  4  3  2  0
  5  4  1  0
  6  5  2  0
  6  1  1  0
  7  1  1  0
  8  4  1  0
  9  8  2  0
 10  8  1  0
 11  5  1  0
  2 12  1  0
  3 13  1  0
  6 14  1  0
  7 15  1  0
  7 16  1  0
 11 17  1  0
M  CHG  1  10  -1
M  END
>  <score>  (3) 
-6.516

$$$$
=
     RDKit          3D

 17 17  0  0  0  0  0  0  0  0999 V2000
    6.4970   70.7140   68.4930 C   0  0  0  0  0  0  0  0  0  0  0  0
    5.1890   70.7450   68.9820 C   0  0  0  0  0  0  0  0  0  0  0  0
    4.1300   70.2380   68.2200 C   0  0  0  0  0  0  0  0  0  0  0  0
    4.3480   69.7260   66.9310 C   0  0  0  0  0  0  0  0  0  0  0  0
    5.6560   69.7630   66.4290 C   0  0  0  0  0  0  0  0  0  0  0  0
    6.7130   70.2690   67.1870 C   0  0  0  0  0  0  0  0  0  0  0  0
    7.5400   71.3120   69.2230 N   0  0  0  0  0  0  0  0  0  0  0  0
    3.2040   69.1730   66.1160 C   0  0  0  0  0  0  0  0  0  0  0  0
    2.2520   68.6470   66.7840 O   0  0  0  0  0  0  0  0  0  0  0  0
    3.2680   69.2710   64.8520 O   0  0  0  0  0  1  0  0  0  0  0  0
    5.9570   69.3080   65.1690 O   0  0  0  0  0  0  0  0  0  0  0  0
    4.9892   71.1721   69.9758 H   0  0  0  0  0  0  0  0  0  0  0  0
    3.1122   70.2407   68.6371 H   0  0  0  0  0  0  0  0  0  0  0  0
    7.7226   70.3176   66.7530 H   0  0  0  0  0  0  0  0  0  0  0  0
    8.5033   71.2872   68.8593 H   0  0  0  0  0  0  0  0  0  0  0  0
    7.3405   71.7747   70.1213 H   0  0  0  0  0  0  0  0  0  0  0  0
    6.8895   69.3456   64.8388 H   0  0  0  0  0  0  0  0  0  0  0  0
  2  1  2  0
  3  2  1  0
  4  3  2  0
  5  4  1  0
  6  5  2  0
  6  1  1  0
  7  1  1  0
  8  4  1  0
  9  8  2  0
 10  8  1  0
 11  5  1  0
  2 12  1  0
  3 13  1  0
  6 14  1  0
  7 15  1  0
  7 16  1  0
 11 17  1  0
M  CHG  1  10  -1
M  END
>  <score>  (4) 
-6.377

$$$$
=
     RDKit          3D

 17 17  0  0  0  0  0  0  0  0999 V2000
    4.1740   69.4570   66.1050 C   0  0  0  0  0  0  0  0  0  0  0  0
    2.8830   69.1370   65.6800 C   0  0  0  0  0  0  0  0  0  0  0  0
    2.6390   68.7640   64.3530 C   0  0  0  0  0  0  0  0  0  0  0  0
    3.6770   68.7410   63.4080 C   0  0  0  0  0  0  0  0  0  0  0  0
    4.9540   69.1290   63.8350 C   0  0  0  0  0  0  0  0  0  0  0  0
    5.1980   69.5040   65.1570 C   0  0  0  0  0  0  0  0  0  0  0  0
    4.3930   69.9260   67.4130 N   0  0  0  0  0  0  0  0  0  0  0  0
    3.4120   68.3290   61.9800 C   0  0  0  0  0  0  0  0  0  0  0  0
    3.9540   67.2330   61.6110 O   0  0  0  0  0  0  0  0  0  0  0  0
    2.6840   69.0830   61.2640 O   0  0  0  0  0  1  0  0  0  0  0  0
    6.0230   69.1620   62.9720 O   0  0  0  0  0  0  0  0  0  0  0  0
    2.0487   69.1785   66.3957 H   0  0  0  0  0  0  0  0  0  0  0  0
    1.6200   68.4851   64.0465 H   0  0  0  0  0  0  0  0  0  0  0  0
    6.2030   69.8386   65.4538 H   0  0  0  0  0  0  0  0  0  0  0  0
    5.3467   70.1610   67.7229 H   0  0  0  0  0  0  0  0  0  0  0  0
    3.5996   70.0344   68.0608 H   0  0  0  0  0  0  0  0  0  0  0  0
    6.9150   69.4400   63.2993 H   0  0  0  0  0  0  0  0  0  0  0  0
  2  1  2  0
  3  2  1  0
  4  3  2  0
  5  4  1  0
  6  5  2  0
  6  1  1  0
  7  1  1  0
  8  4  1  0
  9  8  2  0
 10  8  1  0
 11  5  1  0
  2 12  1  0
  3 13  1  0
  6 14  1  0
  7 15  1  0
  7 16  1  0
 11 17  1  0
M  CHG  1  10  -1
M  END
>  <score>  (5) 
-6.361

$$$$
=
     RDKit          3D

 17 17  0  0  0  0  0  0  0  0999 V2000
    5.7680   70.7950   67.9630 C   0  0  0  0  0  0  0  0  0  0  0  0
    6.0050   70.2490   66.7000 C   0  0  0  0  0  0  0  0  0  0  0  0
    4.9810   69.6040   65.9970 C   0  0  0  0  0  0  0  0  0  0  0  0
    3.7040   69.4520   66.5600 C   0  0  0  0  0  0  0  0  0  0  0  0
    3.5010   69.9480   67.8550 C   0  0  0  0  0  0  0  0  0  0  0  0
    4.5220   70.5900   68.5580 C   0  0  0  0  0  0  0  0  0  0  0  0
    6.8250   71.3540   68.7030 N   0  0  0  0  0  0  0  0  0  0  0  0
    2.5990   68.7640   65.7950 C   0  0  0  0  0  0  0  0  0  0  0  0
    1.9800   67.8430   66.4260 O   0  0  0  0  0  0  0  0  0  0  0  0
    2.3690   69.1430   64.6050 O   0  0  0  0  0  1  0  0  0  0  0  0
    2.2910   69.8200   68.4940 O   0  0  0  0  0  0  0  0  0  0  0  0
    7.0070   70.3266   66.2528 H   0  0  0  0  0  0  0  0  0  0  0  0
    5.1796   69.2106   64.9891 H   0  0  0  0  0  0  0  0  0  0  0  0
    4.3436   70.9363   69.5867 H   0  0  0  0  0  0  0  0  0  0  0  0
    6.6457   71.7557   69.6343 H   0  0  0  0  0  0  0  0  0  0  0  0
    7.7786   71.3618   68.3137 H   0  0  0  0  0  0  0  0  0  0  0  0
    2.1740   70.1793   69.4090 H   0  0  0  0  0  0  0  0  0  0  0  0
  2  1  2  0
  3  2  1  0
  4  3  2  0
  5  4  1  0
  6  5  2  0
  6  1  1  0
  7  1  1  0
  8  4  1  0
  9  8  2  0
 10  8  1  0
 11  5  1  0
  2 12  1  0
  3 13  1  0
  6 14  1  0
  7 15  1  0
  7 16  1  0
 11 17  1  0
M  CHG  1  10  -1
M  END
>  <score>  (6) 
-6.267

$$$$
=
     RDKit          3D

 17 17  0  0  0  0  0  0  0  0999 V2000
    4.6080   68.6530   63.7460 C   0  0  0  0  0  0  0  0  0  0  0  0
    3.4750   68.8010   64.5490 C   0  0  0  0  0  0  0  0  0  0  0  0
    2.1990   68.8650   63.9780 C   0  0  0  0  0  0  0  0  0  0  0  0
    2.0270   68.8240   62.5860 C   0  0  0  0  0  0  0  0  0  0  0  0
    3.1790   68.7420   61.7910 C   0  0  0  0  0  0  0  0  0  0  0  0
    4.4530   68.6800   62.3580 C   0  0  0  0  0  0  0  0  0  0  0  0
    5.8920   68.6880   64.3180 N   0  0  0  0  0  0  0  0  0  0  0  0
    0.6480   68.8840   61.9750 C   0  0  0  0  0  0  0  0  0  0  0  0
    0.4960   69.7350   61.0350 O   0  0  0  0  0  0  0  0  0  0  0  0
   -0.2420   68.1000   62.4270 O   0  0  0  0  0  1  0  0  0  0  0  0
    3.1080   68.7240   60.4190 O   0  0  0  0  0  0  0  0  0  0  0  0
    3.5867   68.8679   65.6413 H   0  0  0  0  0  0  0  0  0  0  0  0
    1.3173   68.9487   64.6304 H   0  0  0  0  0  0  0  0  0  0  0  0
    5.3400   68.6522   61.7081 H   0  0  0  0  0  0  0  0  0  0  0  0
    6.7246   68.5784   63.7217 H   0  0  0  0  0  0  0  0  0  0  0  0
    6.0000   68.8233   65.3334 H   0  0  0  0  0  0  0  0  0  0  0  0
    3.9371   68.6655   59.8812 H   0  0  0  0  0  0  0  0  0  0  0  0
  2  1  2  0
  3  2  1  0
  4  3  2  0
  5  4  1  0
  6  5  2  0
  6  1  1  0
  7  1  1  0
  8  4  1  0
  9  8  2  0
 10  8  1  0
 11  5  1  0
  2 12  1  0
  3 13  1  0
  6 14  1  0
  7 15  1  0
  7 16  1  0
 11 17  1  0
M  CHG  1  10  -1
M  END
>  <score>  (7) 
-6.243

$$$$
=
     RDKit          3D

 17 17  0  0  0  0  0  0  0  0999 V2000
    3.9760   69.0800   64.8060 C   0  0  0  0  0  0  0  0  0  0  0  0
    2.9740   69.0550   65.7780 C   0  0  0  0  0  0  0  0  0  0  0  0
    3.2160   69.5460   67.0660 C   0  0  0  0  0  0  0  0  0  0  0  0
    4.4820   70.0350   67.4270 C   0  0  0  0  0  0  0  0  0  0  0  0
    5.4950   69.9910   66.4590 C   0  0  0  0  0  0  0  0  0  0  0  0
    5.2560   69.5010   65.1750 C   0  0  0  0  0  0  0  0  0  0  0  0
    3.7550   68.4960   63.5460 N   0  0  0  0  0  0  0  0  0  0  0  0
    4.7360   70.5710   68.8150 C   0  0  0  0  0  0  0  0  0  0  0  0
    3.7090   70.6750   69.5640 O   0  0  0  0  0  0  0  0  0  0  0  0
    5.9280   70.8720   69.1310 O   0  0  0  0  0  1  0  0  0  0  0  0
    6.7700   70.4240   66.7320 O   0  0  0  0  0  0  0  0  0  0  0  0
    1.9841   68.6451   65.5288 H   0  0  0  0  0  0  0  0  0  0  0  0
    2.4026   69.5489   67.8065 H   0  0  0  0  0  0  0  0  0  0  0  0
    6.0803   69.4458   64.4487 H   0  0  0  0  0  0  0  0  0  0  0  0
    4.4967   68.5165   62.8316 H   0  0  0  0  0  0  0  0  0  0  0  0
    2.8514   68.0477   63.3375 H   0  0  0  0  0  0  0  0  0  0  0  0
    7.4677   70.3824   66.0308 H   0  0  0  0  0  0  0  0  0  0  0  0
  2  1  2  0
  3  2  1  0
  4  3  2  0
  5  4  1  0
  6  5  2  0
  6  1  1  0
  7  1  1  0
  8  4  1  0
  9  8  2  0
 10  8  1  0
 11  5  1  0
  2 12  1  0
  3 13  1  0
  6 14  1  0
  7 15  1  0
  7 16  1  0
 11 17  1  0
M  CHG  1  10  -1
M  END
>  <score>  (8) 
-6.212

$$$$
=
     RDKit          3D

 17 17  0  0  0  0  0  0  0  0999 V2000
    3.9130   69.5280   66.0310 C   0  0  0  0  0  0  0  0  0  0  0  0
    4.9610   69.5380   65.1080 C   0  0  0  0  0  0  0  0  0  0  0  0
    4.7420   69.1740   63.7740 C   0  0  0  0  0  0  0  0  0  0  0  0
    3.4760   68.7510   63.3410 C   0  0  0  0  0  0  0  0  0  0  0  0
    2.4510   68.6830   64.2940 C   0  0  0  0  0  0  0  0  0  0  0  0
    2.6680   69.0440   65.6250 C   0  0  0  0  0  0  0  0  0  0  0  0
    4.1620   69.8000   67.3880 N   0  0  0  0  0  0  0  0  0  0  0  0
    3.2420   68.3680   61.8990 C   0  0  0  0  0  0  0  0  0  0  0  0
    2.4070   69.0940   61.2630 O   0  0  0  0  0  0  0  0  0  0  0  0
    3.8790   67.3740   61.4320 O   0  0  0  0  0  1  0  0  0  0  0  0
    1.1880   68.2550   63.9640 O   0  0  0  0  0  0  0  0  0  0  0  0
    5.9692   69.8350   65.4326 H   0  0  0  0  0  0  0  0  0  0  0  0
    5.5736   69.2202   63.0555 H   0  0  0  0  0  0  0  0  0  0  0  0
    1.8535   68.9466   66.3579 H   0  0  0  0  0  0  0  0  0  0  0  0
    3.3864   69.7917   68.0657 H   0  0  0  0  0  0  0  0  0  0  0  0
    5.1200   70.0076   67.7043 H   0  0  0  0  0  0  0  0  0  0  0  0
    0.4817   68.2164   64.6566 H   0  0  0  0  0  0  0  0  0  0  0  0
  2  1  2  0
  3  2  1  0
  4  3  2  0
  5  4  1  0
  6  5  2  0
  6  1  1  0
  7  1  1  0
  8  4  1  0
  9  8  2  0
 10  8  1  0
 11  5  1  0
  2 12  1  0
  3 13  1  0
  6 14  1  0
  7 15  1  0
  7 16  1  0
 11 17  1  0
M  CHG  1  10  -1
M  END
>  <score>  (9) 
-6.141

$$$$
