=
     RDKit          3D

 61 63  0  0  0  0  0  0  0  0999 V2000
    0.5940   67.3770   67.5480 C   0  0  0  0  0  0  0  0  0  0  0  0
    1.0110   68.8390   67.5020 C   0  0  0  0  0  0  0  0  0  0  0  0
    0.2000   69.7410   67.7170 O   0  0  0  0  0  0  0  0  0  0  0  0
    2.9520   69.0940   65.8390 C   0  0  0  0  0  0  0  0  0  0  0  0
    4.2760   69.5060   65.6130 C   0  0  0  0  0  0  0  0  0  0  0  0
    5.0890   69.9760   66.6550 C   0  0  0  0  0  0  0  0  0  0  0  0
    4.5240   70.1080   67.9300 C   0  0  0  0  0  0  0  0  0  0  0  0
    3.2100   69.7100   68.1750 C   0  0  0  0  0  0  0  0  0  0  0  0
    2.4130   69.2100   67.1330 C   0  0  0  0  0  0  0  0  0  0  0  0
    5.4460   70.7510   69.2440 Cl  0  0  0  0  0  0  0  0  0  0  0  0
    6.3580   70.4980   66.3480 N   0  0  0  0  0  0  0  0  0  0  0  0
    2.6890   67.5900   63.9970 C   0  0  0  0  0  0  0  0  0  0  0  0
    2.1460   68.5900   64.8550 O   0  0  0  0  0  0  0  0  0  0  0  0
   -0.1400   67.0150   68.8480 C   0  0  0  0  0  0  0  0  0  0  0  0
    0.7790   66.4940   69.9750 C   0  0  0  0  0  0  0  0  0  0  0  0
    0.0170   65.7180   71.0640 C   0  0  0  0  0  0  0  0  0  0  0  0
    0.1060   64.2110   70.8690 C   0  0  0  0  0  0  0  0  0  0  0  0
    1.5500   63.7480   70.9510 N   0  0  0  0  0  4  0  0  0  0  0  0
    2.5540   64.7650   70.4240 C   0  0  0  0  0  0  0  0  0  0  0  0
    1.9090   65.6440   69.3680 C   0  0  0  0  0  0  0  0  0  0  0  0
    1.7700   62.3780   70.3340 C   0  0  0  0  0  0  0  0  0  0  0  0
    2.7850   61.5180   71.1070 C   0  0  0  0  0  0  0  0  0  0  0  0
    4.1490   61.5740   70.3840 C   0  0  0  0  0  0  0  0  0  0  0  0
    5.3450   61.2470   71.2820 C   0  0  0  0  0  0  0  0  0  0  0  0
    4.9570   60.3510   72.4480 C   0  0  0  0  0  0  0  0  0  0  0  0
    3.9020   61.0090   73.3350 C   0  0  0  0  0  0  0  0  0  0  0  0
    2.9450   61.9350   72.5750 C   0  0  0  0  0  0  0  0  0  0  0  0
   -0.0736   67.1737   66.6977 H   0  0  0  0  0  0  0  0  0  0  0  0
    1.5082   66.7671   67.4995 H   0  0  0  0  0  0  0  0  0  0  0  0
    4.6855   69.4588   64.5931 H   0  0  0  0  0  0  0  0  0  0  0  0
    2.7955   69.7883   69.1909 H   0  0  0  0  0  0  0  0  0  0  0  0
    6.9673   70.8472   67.1015 H   0  0  0  0  0  0  0  0  0  0  0  0
    6.6783   70.5312   65.3696 H   0  0  0  0  0  0  0  0  0  0  0  0
    3.1267   66.7840   64.6043 H   0  0  0  0  0  0  0  0  0  0  0  0
    1.8904   67.1785   63.3622 H   0  0  0  0  0  0  0  0  0  0  0  0
    3.4690   68.0357   63.3622 H   0  0  0  0  0  0  0  0  0  0  0  0
   -0.6567   67.9147   69.2135 H   0  0  0  0  0  0  0  0  0  0  0  0
   -0.8304   66.1950   68.6012 H   0  0  0  0  0  0  0  0  0  0  0  0
    1.2118   67.3692   70.4817 H   0  0  0  0  0  0  0  0  0  0  0  0
    0.4442   65.9736   72.0449 H   0  0  0  0  0  0  0  0  0  0  0  0
   -1.0435   66.0034   71.0009 H   0  0  0  0  0  0  0  0  0  0  0  0
   -0.4800   63.7094   71.6532 H   0  0  0  0  0  0  0  0  0  0  0  0
   -0.2931   63.9568   69.8760 H   0  0  0  0  0  0  0  0  0  0  0  0
    1.7339   63.6599   71.9606 H   0  0  0  0  0  0  0  0  0  0  0  0
    2.9036   65.3943   71.2557 H   0  0  0  0  0  0  0  0  0  0  0  0
    3.4028   64.2294   69.9738 H   0  0  0  0  0  0  0  0  0  0  0  0
    2.6716   66.3115   68.9405 H   0  0  0  0  0  0  0  0  0  0  0  0
    1.4816   64.9981   68.5869 H   0  0  0  0  0  0  0  0  0  0  0  0
    0.8072   61.8464   70.3119 H   0  0  0  0  0  0  0  0  0  0  0  0
    2.1791   62.5369   69.3254 H   0  0  0  0  0  0  0  0  0  0  0  0
    2.3963   60.4891   71.1233 H   0  0  0  0  0  0  0  0  0  0  0  0
    4.1310   60.8508   69.5554 H   0  0  0  0  0  0  0  0  0  0  0  0
    4.2839   62.6101   70.0399 H   0  0  0  0  0  0  0  0  0  0  0  0
    6.1105   60.7349   70.6806 H   0  0  0  0  0  0  0  0  0  0  0  0
    5.7276   62.1924   71.6941 H   0  0  0  0  0  0  0  0  0  0  0  0
    4.5536   59.4066   72.0538 H   0  0  0  0  0  0  0  0  0  0  0  0
    5.8550   60.1703   73.0571 H   0  0  0  0  0  0  0  0  0  0  0  0
    3.3094   60.2165   73.8153 H   0  0  0  0  0  0  0  0  0  0  0  0
    4.4400   61.6327   74.0640 H   0  0  0  0  0  0  0  0  0  0  0  0
    1.9593   61.9040   73.0623 H   0  0  0  0  0  0  0  0  0  0  0  0
    3.3676   62.9504   72.5953 H   0  0  0  0  0  0  0  0  0  0  0  0
  2  1  1  0
  3  2  2  0
  5  4  2  0
  6  5  1  0
  7  6  2  0
  8  7  1  0
  9  8  2  0
  9  4  1  0
  9  2  1  0
 10  7  1  0
 11  6  1  0
 13 12  1  0
 13  4  1  0
 14  1  1  0
 15 14  1  0
 16 15  1  0
 17 16  1  0
 18 17  1  0
 19 18  1  0
 20 19  1  0
 20 15  1  0
 21 18  1  0
 22 21  1  0
 23 22  1  0
 24 23  1  0
 25 24  1  0
 26 25  1  0
 27 26  1  0
 27 22  1  0
  1 28  1  0
  1 29  1  0
  5 30  1  0
  8 31  1  0
 11 32  1  0
 11 33  1  0
 12 34  1  0
 12 35  1  0
 12 36  1  0
 14 37  1  0
 14 38  1  0
 15 39  1  0
 16 40  1  0
 16 41  1  0
 17 42  1  0
 17 43  1  0
 18 44  1  0
 19 45  1  0
 19 46  1  0
 20 47  1  0
 20 48  1  0
 21 49  1  0
 21 50  1  0
 22 51  1  0
 23 52  1  0
 23 53  1  0
 24 54  1  0
 24 55  1  0
 25 56  1  0
 25 57  1  0
 26 58  1  0
 26 59  1  0
 27 60  1  0
 27 61  1  0
M  CHG  1  18   1
M  END
>  <score>  (1) 
-9.139

$$$$
=
     RDKit          3D

 61 63  0  0  0  0  0  0  0  0999 V2000
    0.4550   67.1620   67.5940 C   0  0  0  0  0  0  0  0  0  0  0  0
    0.8320   68.6160   67.3520 C   0  0  0  0  0  0  0  0  0  0  0  0
    0.0670   69.5320   67.6580 O   0  0  0  0  0  0  0  0  0  0  0  0
    3.2570   69.4630   67.3400 C   0  0  0  0  0  0  0  0  0  0  0  0
    4.4230   69.7140   66.5970 C   0  0  0  0  0  0  0  0  0  0  0  0
    4.4670   69.5250   65.2080 C   0  0  0  0  0  0  0  0  0  0  0  0
    3.3360   68.9940   64.5740 C   0  0  0  0  0  0  0  0  0  0  0  0
    2.1700   68.7330   65.2930 C   0  0  0  0  0  0  0  0  0  0  0  0
    2.1230   68.9560   66.6780 C   0  0  0  0  0  0  0  0  0  0  0  0
    3.3460   68.6660   62.8760 Cl  0  0  0  0  0  0  0  0  0  0  0  0
    5.6960   69.6640   64.5400 N   0  0  0  0  0  0  0  0  0  0  0  0
    3.6520   70.9170   69.1980 C   0  0  0  0  0  0  0  0  0  0  0  0
    3.1660   69.6780   68.6870 O   0  0  0  0  0  0  0  0  0  0  0  0
   -0.2200   66.9470   68.9570 C   0  0  0  0  0  0  0  0  0  0  0  0
    0.7240   66.4260   70.0620 C   0  0  0  0  0  0  0  0  0  0  0  0
   -0.0010   65.5830   71.1270 C   0  0  0  0  0  0  0  0  0  0  0  0
    0.1470   64.0880   70.8800 C   0  0  0  0  0  0  0  0  0  0  0  0
    1.6080   63.6810   70.9400 N   0  0  0  0  0  4  0  0  0  0  0  0
    2.5690   64.7550   70.4440 C   0  0  0  0  0  0  0  0  0  0  0  0
    1.8840   65.6420   69.4220 C   0  0  0  0  0  0  0  0  0  0  0  0
    1.8800   62.3420   70.2760 C   0  0  0  0  0  0  0  0  0  0  0  0
    2.7920   61.4240   71.1080 C   0  0  0  0  0  0  0  0  0  0  0  0
    4.1940   61.3820   70.4600 C   0  0  0  0  0  0  0  0  0  0  0  0
    5.3140   60.9850   71.4230 C   0  0  0  0  0  0  0  0  0  0  0  0
    4.8050   60.1260   72.5710 C   0  0  0  0  0  0  0  0  0  0  0  0
    3.7500   60.8610   73.3960 C   0  0  0  0  0  0  0  0  0  0  0  0
    2.9000   61.8420   72.5800 C   0  0  0  0  0  0  0  0  0  0  0  0
   -0.2385   66.8412   66.8027 H   0  0  0  0  0  0  0  0  0  0  0  0
    1.3825   66.5707   67.5840 H   0  0  0  0  0  0  0  0  0  0  0  0
    5.3246   70.0679   67.1183 H   0  0  0  0  0  0  0  0  0  0  0  0
    1.2808   68.3497   64.7711 H   0  0  0  0  0  0  0  0  0  0  0  0
    5.7460   69.5286   63.5202 H   0  0  0  0  0  0  0  0  0  0  0  0
    6.5465   69.9012   65.0704 H   0  0  0  0  0  0  0  0  0  0  0  0
    3.6413   70.8896   70.2976 H   0  0  0  0  0  0  0  0  0  0  0  0
    4.6810   71.0807   68.8453 H   0  0  0  0  0  0  0  0  0  0  0  0
    3.0087   71.7367   68.8453 H   0  0  0  0  0  0  0  0  0  0  0  0
   -0.6397   67.9083   69.2883 H   0  0  0  0  0  0  0  0  0  0  0  0
   -0.9866   66.1723   68.8085 H   0  0  0  0  0  0  0  0  0  0  0  0
    1.1237   67.3004   70.5965 H   0  0  0  0  0  0  0  0  0  0  0  0
    0.4208   65.8218   72.1145 H   0  0  0  0  0  0  0  0  0  0  0  0
   -1.0723   65.8277   71.0777 H   0  0  0  0  0  0  0  0  0  0  0  0
   -0.4141   63.5368   71.6490 H   0  0  0  0  0  0  0  0  0  0  0  0
   -0.2471   63.8520   69.8805 H   0  0  0  0  0  0  0  0  0  0  0  0
    1.7998   63.5664   71.9455 H   0  0  0  0  0  0  0  0  0  0  0  0
    2.8978   65.3691   71.2953 H   0  0  0  0  0  0  0  0  0  0  0  0
    3.4363   64.2695   69.9728 H   0  0  0  0  0  0  0  0  0  0  0  0
    2.6172   66.3533   69.0140 H   0  0  0  0  0  0  0  0  0  0  0  0
    1.4779   65.0059   68.6217 H   0  0  0  0  0  0  0  0  0  0  0  0
    0.9197   61.8294   70.1176 H   0  0  0  0  0  0  0  0  0  0  0  0
    2.4013   62.5478   69.3295 H   0  0  0  0  0  0  0  0  0  0  0  0
    2.3346   60.4236   71.1088 H   0  0  0  0  0  0  0  0  0  0  0  0
    4.1723   60.6537   69.6360 H   0  0  0  0  0  0  0  0  0  0  0  0
    4.4165   62.4034   70.1176 H   0  0  0  0  0  0  0  0  0  0  0  0
    6.0755   60.4186   70.8669 H   0  0  0  0  0  0  0  0  0  0  0  0
    5.7350   61.9068   71.8509 H   0  0  0  0  0  0  0  0  0  0  0  0
    4.3611   59.2072   72.1602 H   0  0  0  0  0  0  0  0  0  0  0  0
    5.6547   59.8906   73.2287 H   0  0  0  0  0  0  0  0  0  0  0  0
    3.0804   60.1141   73.8475 H   0  0  0  0  0  0  0  0  0  0  0  0
    4.2885   61.4538   74.1501 H   0  0  0  0  0  0  0  0  0  0  0  0
    1.8895   61.8812   73.0129 H   0  0  0  0  0  0  0  0  0  0  0  0
    3.3883   62.8269   72.6180 H   0  0  0  0  0  0  0  0  0  0  0  0
  2  1  1  0
  3  2  2  0
  5  4  2  0
  6  5  1  0
  7  6  2  0
  8  7  1  0
  9  8  2  0
  9  4  1  0
  9  2  1  0
 10  7  1  0
 11  6  1  0
 13 12  1  0
 13  4  1  0
 14  1  1  0
 15 14  1  0
 16 15  1  0
 17 16  1  0
 18 17  1  0
 19 18  1  0
 20 19  1  0
 20 15  1  0
 21 18  1  0
 22 21  1  0
 23 22  1  0
 24 23  1  0
 25 24  1  0
 26 25  1  0
 27 26  1  0
 27 22  1  0
  1 28  1  0
  1 29  1  0
  5 30  1  0
  8 31  1  0
 11 32  1  0
 11 33  1  0
 12 34  1  0
 12 35  1  0
 12 36  1  0
 14 37  1  0
 14 38  1  0
 15 39  1  0
 16 40  1  0
 16 41  1  0
 17 42  1  0
 17 43  1  0
 18 44  1  0
 19 45  1  0
 19 46  1  0
 20 47  1  0
 20 48  1  0
 21 49  1  0
 21 50  1  0
 22 51  1  0
 23 52  1  0
 23 53  1  0
 24 54  1  0
 24 55  1  0
 25 56  1  0
 25 57  1  0
 26 58  1  0
 26 59  1  0
 27 60  1  0
 27 61  1  0
M  CHG  1  18   1
M  END
>  <score>  (2) 
-8.959

$$$$
=
     RDKit          3D

 61 63  0  0  0  0  0  0  0  0999 V2000
    1.3370   67.2530   65.5800 C   0  0  0  0  0  0  0  0  0  0  0  0
    1.8940   68.4880   64.8880 C   0  0  0  0  0  0  0  0  0  0  0  0
    1.2770   69.0410   63.9760 O   0  0  0  0  0  0  0  0  0  0  0  0
    4.3260   69.1440   64.3810 C   0  0  0  0  0  0  0  0  0  0  0  0
    5.5320   69.6880   64.8540 C   0  0  0  0  0  0  0  0  0  0  0  0
    5.6970   70.0590   66.1960 C   0  0  0  0  0  0  0  0  0  0  0  0
    4.5950   69.9520   67.0550 C   0  0  0  0  0  0  0  0  0  0  0  0
    3.3880   69.4190   66.6060 C   0  0  0  0  0  0  0  0  0  0  0  0
    3.2400   69.0200   65.2680 C   0  0  0  0  0  0  0  0  0  0  0  0
    4.7060   70.4610   68.7040 Cl  0  0  0  0  0  0  0  0  0  0  0  0
    6.8760   70.7190   66.5810 N   0  0  0  0  0  0  0  0  0  0  0  0
    4.6370   67.4440   62.7260 C   0  0  0  0  0  0  0  0  0  0  0  0
    4.1450   68.7310   63.0900 O   0  0  0  0  0  0  0  0  0  0  0  0
   -0.0390   67.5040   66.2160 C   0  0  0  0  0  0  0  0  0  0  0  0
    0.0000   67.7710   67.7360 C   0  0  0  0  0  0  0  0  0  0  0  0
   -1.0390   66.9480   68.5190 C   0  0  0  0  0  0  0  0  0  0  0  0
   -0.4330   65.7020   69.1480 C   0  0  0  0  0  0  0  0  0  0  0  0
    0.6470   66.0790   70.1460 N   0  0  0  0  0  4  0  0  0  0  0  0
    1.4170   67.3400   69.7730 C   0  0  0  0  0  0  0  0  0  0  0  0
    1.4230   67.5270   68.2670 C   0  0  0  0  0  0  0  0  0  0  0  0
    1.5860   64.9300   70.4690 C   0  0  0  0  0  0  0  0  0  0  0  0
    0.8770   63.7290   71.1180 C   0  0  0  0  0  0  0  0  0  0  0  0
    1.6790   62.4440   70.8170 C   0  0  0  0  0  0  0  0  0  0  0  0
    1.4290   61.3060   71.8090 C   0  0  0  0  0  0  0  0  0  0  0  0
    0.0570   61.4030   72.4570 C   0  0  0  0  0  0  0  0  0  0  0  0
   -0.1070   62.7100   73.2310 C   0  0  0  0  0  0  0  0  0  0  0  0
    0.6730   63.8850   72.6310 C   0  0  0  0  0  0  0  0  0  0  0  0
    1.2407   66.4465   64.8382 H   0  0  0  0  0  0  0  0  0  0  0  0
    2.0330   66.9801   66.3869 H   0  0  0  0  0  0  0  0  0  0  0  0
    6.3685   69.8264   64.1532 H   0  0  0  0  0  0  0  0  0  0  0  0
    2.5455   69.3102   67.3048 H   0  0  0  0  0  0  0  0  0  0  0  0
    7.0127   70.9983   67.5629 H   0  0  0  0  0  0  0  0  0  0  0  0
    7.6037   70.9236   65.8813 H   0  0  0  0  0  0  0  0  0  0  0  0
    4.8582   66.8654   63.6350 H   0  0  0  0  0  0  0  0  0  0  0  0
    3.8774   66.9159   62.1310 H   0  0  0  0  0  0  0  0  0  0  0  0
    5.5552   67.5573   62.1310 H   0  0  0  0  0  0  0  0  0  0  0  0
   -0.4908   68.3783   65.7246 H   0  0  0  0  0  0  0  0  0  0  0  0
   -0.6231   66.5828   66.0740 H   0  0  0  0  0  0  0  0  0  0  0  0
   -0.2735   68.8245   67.8951 H   0  0  0  0  0  0  0  0  0  0  0  0
   -1.4609   67.5774   69.3164 H   0  0  0  0  0  0  0  0  0  0  0  0
   -1.8153   66.6239   67.8102 H   0  0  0  0  0  0  0  0  0  0  0  0
   -1.2227   65.1377   69.6657 H   0  0  0  0  0  0  0  0  0  0  0  0
    0.0163   65.0867   68.3546 H   0  0  0  0  0  0  0  0  0  0  0  0
    0.1309   66.3012   71.0093 H   0  0  0  0  0  0  0  0  0  0  0  0
    0.9381   68.2106   70.2449 H   0  0  0  0  0  0  0  0  0  0  0  0
    2.4544   67.2435   70.1258 H   0  0  0  0  0  0  0  0  0  0  0  0
    2.0544   68.3916   68.0144 H   0  0  0  0  0  0  0  0  0  0  0  0
    1.8185   66.6120   67.8019 H   0  0  0  0  0  0  0  0  0  0  0  0
    2.0596   64.5930   69.5351 H   0  0  0  0  0  0  0  0  0  0  0  0
    2.3222   65.3051   71.1951 H   0  0  0  0  0  0  0  0  0  0  0  0
   -0.1300   63.6692   70.6793 H   0  0  0  0  0  0  0  0  0  0  0  0
    1.4042   62.0926   69.8115 H   0  0  0  0  0  0  0  0  0  0  0  0
    2.7438   62.7078   70.8980 H   0  0  0  0  0  0  0  0  0  0  0  0
    1.5019   60.3473   71.2746 H   0  0  0  0  0  0  0  0  0  0  0  0
    2.1852   61.3780   72.6046 H   0  0  0  0  0  0  0  0  0  0  0  0
   -0.7127   61.3533   71.6728 H   0  0  0  0  0  0  0  0  0  0  0  0
   -0.0496   60.5677   73.1648 H   0  0  0  0  0  0  0  0  0  0  0  0
   -1.1749   62.9734   73.2449 H   0  0  0  0  0  0  0  0  0  0  0  0
    0.2969   62.5384   74.2397 H   0  0  0  0  0  0  0  0  0  0  0  0
    0.1156   64.8143   72.8199 H   0  0  0  0  0  0  0  0  0  0  0  0
    1.6648   63.9114   73.1059 H   0  0  0  0  0  0  0  0  0  0  0  0
  2  1  1  0
  3  2  2  0
  5  4  2  0
  6  5  1  0
  7  6  2  0
  8  7  1  0
  9  8  2  0
  9  4  1  0
  9  2  1  0
 10  7  1  0
 11  6  1  0
 13 12  1  0
 13  4  1  0
 14  1  1  0
 15 14  1  0
 16 15  1  0
 17 16  1  0
 18 17  1  0
 19 18  1  0
 20 19  1  0
 20 15  1  0
 21 18  1  0
 22 21  1  0
 23 22  1  0
 24 23  1  0
 25 24  1  0
 26 25  1  0
 27 26  1  0
 27 22  1  0
  1 28  1  0
  1 29  1  0
  5 30  1  0
  8 31  1  0
 11 32  1  0
 11 33  1  0
 12 34  1  0
 12 35  1  0
 12 36  1  0
 14 37  1  0
 14 38  1  0
 15 39  1  0
 16 40  1  0
 16 41  1  0
 17 42  1  0
 17 43  1  0
 18 44  1  0
 19 45  1  0
 19 46  1  0
 20 47  1  0
 20 48  1  0
 21 49  1  0
 21 50  1  0
 22 51  1  0
 23 52  1  0
 23 53  1  0
 24 54  1  0
 24 55  1  0
 25 56  1  0
 25 57  1  0
 26 58  1  0
 26 59  1  0
 27 60  1  0
 27 61  1  0
M  CHG  1  18   1
M  END
>  <score>  (3) 
-8.837

$$$$
=
     RDKit          3D

 61 63  0  0  0  0  0  0  0  0999 V2000
    0.0260   65.7650   69.7090 C   0  0  0  0  0  0  0  0  0  0  0  0
    0.3700   65.1490   71.0570 C   0  0  0  0  0  0  0  0  0  0  0  0
   -0.0440   65.6410   72.1080 O   0  0  0  0  0  0  0  0  0  0  0  0
    0.8580   62.6640   71.4920 C   0  0  0  0  0  0  0  0  0  0  0  0
    1.8000   61.6220   71.4930 C   0  0  0  0  0  0  0  0  0  0  0  0
    3.1520   61.8500   71.1990 C   0  0  0  0  0  0  0  0  0  0  0  0
    3.5390   63.1410   70.8160 C   0  0  0  0  0  0  0  0  0  0  0  0
    2.6200   64.1890   70.8030 C   0  0  0  0  0  0  0  0  0  0  0  0
    1.2740   63.9590   71.1310 C   0  0  0  0  0  0  0  0  0  0  0  0
    5.1750   63.4770   70.3680 Cl  0  0  0  0  0  0  0  0  0  0  0  0
    4.0200   60.7500   71.0860 N   0  0  0  0  0  0  0  0  0  0  0  0
   -0.7630   61.6450   72.9280 C   0  0  0  0  0  0  0  0  0  0  0  0
   -0.4590   62.4850   71.8170 O   0  0  0  0  0  0  0  0  0  0  0  0
    1.0600   66.8070   69.2570 C   0  0  0  0  0  0  0  0  0  0  0  0
    0.4850   67.9320   68.3680 C   0  0  0  0  0  0  0  0  0  0  0  0
    1.5490   68.9530   67.9260 C   0  0  0  0  0  0  0  0  0  0  0  0
    2.0630   68.6790   66.5200 C   0  0  0  0  0  0  0  0  0  0  0  0
    0.9340   68.7800   65.5100 N   0  0  0  0  0  4  0  0  0  0  0  0
   -0.4200   68.3400   66.0540 C   0  0  0  0  0  0  0  0  0  0  0  0
   -0.2360   67.3140   67.1570 C   0  0  0  0  0  0  0  0  0  0  0  0
    1.2520   68.0960   64.1920 C   0  0  0  0  0  0  0  0  0  0  0  0
    2.6010   67.3580   64.2010 C   0  0  0  0  0  0  0  0  0  0  0  0
    2.3810   65.9070   64.6850 C   0  0  0  0  0  0  0  0  0  0  0  0
    3.4690   64.9280   64.2400 C   0  0  0  0  0  0  0  0  0  0  0  0
    4.7990   65.6240   63.9940 C   0  0  0  0  0  0  0  0  0  0  0  0
    4.6830   66.6870   62.9030 C   0  0  0  0  0  0  0  0  0  0  0  0
    3.3080   67.3600   62.8390 C   0  0  0  0  0  0  0  0  0  0  0  0
   -0.0196   64.9640   68.9565 H   0  0  0  0  0  0  0  0  0  0  0  0
   -0.9415   66.2779   69.8132 H   0  0  0  0  0  0  0  0  0  0  0  0
    1.4684   60.6004   71.7306 H   0  0  0  0  0  0  0  0  0  0  0  0
    2.9513   65.2029   70.5340 H   0  0  0  0  0  0  0  0  0  0  0  0
    5.0160   60.8999   70.8705 H   0  0  0  0  0  0  0  0  0  0  0  0
    3.6600   59.7941   71.2187 H   0  0  0  0  0  0  0  0  0  0  0  0
   -0.5661   62.1889   73.8636 H   0  0  0  0  0  0  0  0  0  0  0  0
   -1.8233   61.3546   72.8888 H   0  0  0  0  0  0  0  0  0  0  0  0
   -0.1342   60.7433   72.8888 H   0  0  0  0  0  0  0  0  0  0  0  0
    1.4990   67.2678   70.1542 H   0  0  0  0  0  0  0  0  0  0  0  0
    1.8000   66.2703   68.6451 H   0  0  0  0  0  0  0  0  0  0  0  0
   -0.2375   68.4987   68.9736 H   0  0  0  0  0  0  0  0  0  0  0  0
    1.1055   69.9593   67.9507 H   0  0  0  0  0  0  0  0  0  0  0  0
    2.4007   68.8724   68.6175 H   0  0  0  0  0  0  0  0  0  0  0  0
    2.8399   69.4162   66.2689 H   0  0  0  0  0  0  0  0  0  0  0  0
    2.4794   67.6614   66.4863 H   0  0  0  0  0  0  0  0  0  0  0  0
    0.8531   69.7885   65.3169 H   0  0  0  0  0  0  0  0  0  0  0  0
   -0.9509   69.2150   66.4571 H   0  0  0  0  0  0  0  0  0  0  0  0
   -1.0037   67.8880   65.2385 H   0  0  0  0  0  0  0  0  0  0  0  0
   -1.2227   66.9461   67.4747 H   0  0  0  0  0  0  0  0  0  0  0  0
    0.3761   66.4867   66.7685 H   0  0  0  0  0  0  0  0  0  0  0  0
    0.4567   67.3675   63.9756 H   0  0  0  0  0  0  0  0  0  0  0  0
    1.3145   68.8808   63.4238 H   0  0  0  0  0  0  0  0  0  0  0  0
    3.2645   67.9014   64.8898 H   0  0  0  0  0  0  0  0  0  0  0  0
    2.3486   65.9109   65.7845 H   0  0  0  0  0  0  0  0  0  0  0  0
    1.4395   65.5614   64.2332 H   0  0  0  0  0  0  0  0  0  0  0  0
    3.6056   64.1690   65.0244 H   0  0  0  0  0  0  0  0  0  0  0  0
    3.1461   64.4700   63.2934 H   0  0  0  0  0  0  0  0  0  0  0  0
    5.1287   66.1043   64.9270 H   0  0  0  0  0  0  0  0  0  0  0  0
    5.5270   64.8687   63.6630 H   0  0  0  0  0  0  0  0  0  0  0  0
    5.4401   67.4622   63.0922 H   0  0  0  0  0  0  0  0  0  0  0  0
    4.8348   66.1763   61.9407 H   0  0  0  0  0  0  0  0  0  0  0  0
    3.4376   68.4010   62.5080 H   0  0  0  0  0  0  0  0  0  0  0  0
    2.6849   66.7916   62.1328 H   0  0  0  0  0  0  0  0  0  0  0  0
  2  1  1  0
  3  2  2  0
  5  4  2  0
  6  5  1  0
  7  6  2  0
  8  7  1  0
  9  8  2  0
  9  4  1  0
  9  2  1  0
 10  7  1  0
 11  6  1  0
 13 12  1  0
 13  4  1  0
 14  1  1  0
 15 14  1  0
 16 15  1  0
 17 16  1  0
 18 17  1  0
 19 18  1  0
 20 19  1  0
 20 15  1  0
 21 18  1  0
 22 21  1  0
 23 22  1  0
 24 23  1  0
 25 24  1  0
 26 25  1  0
 27 26  1  0
 27 22  1  0
  1 28  1  0
  1 29  1  0
  5 30  1  0
  8 31  1  0
 11 32  1  0
 11 33  1  0
 12 34  1  0
 12 35  1  0
 12 36  1  0
 14 37  1  0
 14 38  1  0
 15 39  1  0
 16 40  1  0
 16 41  1  0
 17 42  1  0
 17 43  1  0
 18 44  1  0
 19 45  1  0
 19 46  1  0
 20 47  1  0
 20 48  1  0
 21 49  1  0
 21 50  1  0
 22 51  1  0
 23 52  1  0
 23 53  1  0
 24 54  1  0
 24 55  1  0
 25 56  1  0
 25 57  1  0
 26 58  1  0
 26 59  1  0
 27 60  1  0
 27 61  1  0
M  CHG  1  18   1
M  END
>  <score>  (4) 
-8.804

$$$$
=
     RDKit          3D

 61 63  0  0  0  0  0  0  0  0999 V2000
    0.7690   65.4520   70.3340 C   0  0  0  0  0  0  0  0  0  0  0  0
    0.7420   63.9470   70.5540 C   0  0  0  0  0  0  0  0  0  0  0  0
   -0.3060   63.3070   70.4560 O   0  0  0  0  0  0  0  0  0  0  0  0
    3.1440   63.1270   70.1610 C   0  0  0  0  0  0  0  0  0  0  0  0
    4.2630   62.4430   70.6660 C   0  0  0  0  0  0  0  0  0  0  0  0
    4.2370   61.8100   71.9160 C   0  0  0  0  0  0  0  0  0  0  0  0
    3.0840   61.9410   72.7030 C   0  0  0  0  0  0  0  0  0  0  0  0
    1.9650   62.6190   72.2230 C   0  0  0  0  0  0  0  0  0  0  0  0
    1.9880   63.2230   70.9560 C   0  0  0  0  0  0  0  0  0  0  0  0
    3.0110   61.2480   74.2860 Cl  0  0  0  0  0  0  0  0  0  0  0  0
    5.4240   61.2570   72.4260 N   0  0  0  0  0  0  0  0  0  0  0  0
    3.7040   63.0090   67.8380 C   0  0  0  0  0  0  0  0  0  0  0  0
    3.1210   63.7180   68.9270 O   0  0  0  0  0  0  0  0  0  0  0  0
   -0.3540   65.9310   69.4020 C   0  0  0  0  0  0  0  0  0  0  0  0
   -0.0710   67.2790   68.7020 C   0  0  0  0  0  0  0  0  0  0  0  0
    1.4300   67.6120   68.6200 C   0  0  0  0  0  0  0  0  0  0  0  0
    2.0250   67.2620   67.2630 C   0  0  0  0  0  0  0  0  0  0  0  0
    1.3520   68.0650   66.1630 N   0  0  0  0  0  4  0  0  0  0  0  0
   -0.1180   68.3620   66.4300 C   0  0  0  0  0  0  0  0  0  0  0  0
   -0.7230   67.2840   67.3090 C   0  0  0  0  0  0  0  0  0  0  0  0
    1.5580   67.4680   64.7820 C   0  0  0  0  0  0  0  0  0  0  0  0
    2.7340   68.0970   64.0160 C   0  0  0  0  0  0  0  0  0  0  0  0
    3.4200   69.1470   64.9180 C   0  0  0  0  0  0  0  0  0  0  0  0
    4.8720   69.4460   64.5350 C   0  0  0  0  0  0  0  0  0  0  0  0
    5.1410   69.1810   63.0620 C   0  0  0  0  0  0  0  0  0  0  0  0
    4.8760   67.7210   62.6960 C   0  0  0  0  0  0  0  0  0  0  0  0
    3.7610   67.0700   63.5230 C   0  0  0  0  0  0  0  0  0  0  0  0
    0.6574   65.9527   71.3071 H   0  0  0  0  0  0  0  0  0  0  0  0
    1.7282   65.7027   69.8575 H   0  0  0  0  0  0  0  0  0  0  0  0
    5.1831   62.4035   70.0645 H   0  0  0  0  0  0  0  0  0  0  0  0
    1.0574   62.6813   72.8413 H   0  0  0  0  0  0  0  0  0  0  0  0
    5.4213   60.7885   73.3433 H   0  0  0  0  0  0  0  0  0  0  0  0
    6.2967   61.3202   71.8825 H   0  0  0  0  0  0  0  0  0  0  0  0
    4.3577   62.2140   68.2260 H   0  0  0  0  0  0  0  0  0  0  0  0
    2.9085   62.5623   67.2234 H   0  0  0  0  0  0  0  0  0  0  0  0
    4.2960   63.7032   67.2234 H   0  0  0  0  0  0  0  0  0  0  0  0
   -0.5072   65.1661   68.6265 H   0  0  0  0  0  0  0  0  0  0  0  0
   -1.2415   66.0853   70.0333 H   0  0  0  0  0  0  0  0  0  0  0  0
   -0.5185   68.0733   69.3175 H   0  0  0  0  0  0  0  0  0  0  0  0
    1.5638   68.6892   68.7980 H   0  0  0  0  0  0  0  0  0  0  0  0
    1.9504   67.0120   69.3811 H   0  0  0  0  0  0  0  0  0  0  0  0
    3.1012   67.4894   67.2703 H   0  0  0  0  0  0  0  0  0  0  0  0
    1.8646   66.1910   67.0701 H   0  0  0  0  0  0  0  0  0  0  0  0
    1.8354   68.9744   66.1756 H   0  0  0  0  0  0  0  0  0  0  0  0
   -0.2053   69.3344   66.9367 H   0  0  0  0  0  0  0  0  0  0  0  0
   -0.6574   68.3860   65.4716 H   0  0  0  0  0  0  0  0  0  0  0  0
   -1.8015   67.4713   67.4172 H   0  0  0  0  0  0  0  0  0  0  0  0
   -0.5474   66.3065   66.8361 H   0  0  0  0  0  0  0  0  0  0  0  0
    1.7499   66.3905   64.8926 H   0  0  0  0  0  0  0  0  0  0  0  0
    0.6460   67.6694   64.2009 H   0  0  0  0  0  0  0  0  0  0  0  0
    2.3199   68.5704   63.1135 H   0  0  0  0  0  0  0  0  0  0  0  0
    2.8464   70.0835   64.8560 H   0  0  0  0  0  0  0  0  0  0  0  0
    3.4397   68.7279   65.9348 H   0  0  0  0  0  0  0  0  0  0  0  0
    5.0849   70.5036   64.7498 H   0  0  0  0  0  0  0  0  0  0  0  0
    5.5214   68.7808   65.1230 H   0  0  0  0  0  0  0  0  0  0  0  0
    4.4854   69.8253   62.4578 H   0  0  0  0  0  0  0  0  0  0  0  0
    6.2001   69.3996   62.8607 H   0  0  0  0  0  0  0  0  0  0  0  0
    4.5925   67.6753   61.6342 H   0  0  0  0  0  0  0  0  0  0  0  0
    5.8004   67.1639   62.9084 H   0  0  0  0  0  0  0  0  0  0  0  0
    3.2459   66.3245   62.8994 H   0  0  0  0  0  0  0  0  0  0  0  0
    4.2225   66.6020   64.4051 H   0  0  0  0  0  0  0  0  0  0  0  0
  2  1  1  0
  3  2  2  0
  5  4  2  0
  6  5  1  0
  7  6  2  0
  8  7  1  0
  9  8  2  0
  9  4  1  0
  9  2  1  0
 10  7  1  0
 11  6  1  0
 13 12  1  0
 13  4  1  0
 14  1  1  0
 15 14  1  0
 16 15  1  0
 17 16  1  0
 18 17  1  0
 19 18  1  0
 20 19  1  0
 20 15  1  0
 21 18  1  0
 22 21  1  0
 23 22  1  0
 24 23  1  0
 25 24  1  0
 26 25  1  0
 27 26  1  0
 27 22  1  0
  1 28  1  0
  1 29  1  0
  5 30  1  0
  8 31  1  0
 11 32  1  0
 11 33  1  0
 12 34  1  0
 12 35  1  0
 12 36  1  0
 14 37  1  0
 14 38  1  0
 15 39  1  0
 16 40  1  0
 16 41  1  0
 17 42  1  0
 17 43  1  0
 18 44  1  0
 19 45  1  0
 19 46  1  0
 20 47  1  0
 20 48  1  0
 21 49  1  0
 21 50  1  0
 22 51  1  0
 23 52  1  0
 23 53  1  0
 24 54  1  0
 24 55  1  0
 25 56  1  0
 25 57  1  0
 26 58  1  0
 26 59  1  0
 27 60  1  0
 27 61  1  0
M  CHG  1  18   1
M  END
>  <score>  (5) 
-8.39

$$$$
=
     RDKit          3D

 61 63  0  0  0  0  0  0  0  0999 V2000
    3.0030   69.3270   66.2230 C   0  0  0  0  0  0  0  0  0  0  0  0
    2.2360   69.1910   67.5300 C   0  0  0  0  0  0  0  0  0  0  0  0
    2.7060   69.6040   68.5920 O   0  0  0  0  0  0  0  0  0  0  0  0
    0.5990   67.4170   68.4070 C   0  0  0  0  0  0  0  0  0  0  0  0
   -0.6930   66.8650   68.3580 C   0  0  0  0  0  0  0  0  0  0  0  0
   -1.6540   67.3220   67.4460 C   0  0  0  0  0  0  0  0  0  0  0  0
   -1.3280   68.4110   66.6260 C   0  0  0  0  0  0  0  0  0  0  0  0
   -0.0540   68.9760   66.6630 C   0  0  0  0  0  0  0  0  0  0  0  0
    0.9140   68.4920   67.5570 C   0  0  0  0  0  0  0  0  0  0  0  0
   -2.4910   69.0740   65.5320 Cl  0  0  0  0  0  0  0  0  0  0  0  0
   -2.9660   66.8250   67.5320 N   0  0  0  0  0  0  0  0  0  0  0  0
    1.2280   65.9440   70.1850 C   0  0  0  0  0  0  0  0  0  0  0  0
    1.5740   66.9660   69.2540 O   0  0  0  0  0  0  0  0  0  0  0  0
    4.5190   69.4510   66.4400 C   0  0  0  0  0  0  0  0  0  0  0  0
    5.3740   69.0090   65.2320 C   0  0  0  0  0  0  0  0  0  0  0  0
    5.3060   67.4940   64.9680 C   0  0  0  0  0  0  0  0  0  0  0  0
    4.3200   67.1440   63.8630 C   0  0  0  0  0  0  0  0  0  0  0  0
    4.7400   67.7840   62.5520 N   0  0  0  0  0  4  0  0  0  0  0  0
    5.4350   69.1290   62.7180 C   0  0  0  0  0  0  0  0  0  0  0  0
    4.9620   69.8140   63.9870 C   0  0  0  0  0  0  0  0  0  0  0  0
    3.6100   67.8630   61.5400 C   0  0  0  0  0  0  0  0  0  0  0  0
    2.4090   68.6870   62.0340 C   0  0  0  0  0  0  0  0  0  0  0  0
    1.7620   69.4090   60.8300 C   0  0  0  0  0  0  0  0  0  0  0  0
    0.2990   69.7990   61.0500 C   0  0  0  0  0  0  0  0  0  0  0  0
   -0.0270   69.9940   62.5230 C   0  0  0  0  0  0  0  0  0  0  0  0
    0.2180   68.7170   63.3250 C   0  0  0  0  0  0  0  0  0  0  0  0
    1.3590   67.8520   62.7780 C   0  0  0  0  0  0  0  0  0  0  0  0
    2.8067   68.4386   65.6048 H   0  0  0  0  0  0  0  0  0  0  0  0
    2.6599   70.2478   65.7287 H   0  0  0  0  0  0  0  0  0  0  0  0
   -0.9563   66.0540   69.0530 H   0  0  0  0  0  0  0  0  0  0  0  0
    0.1945   69.8072   65.9867 H   0  0  0  0  0  0  0  0  0  0  0  0
   -3.6844   67.1504   66.8695 H   0  0  0  0  0  0  0  0  0  0  0  0
   -3.2090   66.1354   68.2575 H   0  0  0  0  0  0  0  0  0  0  0  0
    1.3562   66.3228   71.2097 H   0  0  0  0  0  0  0  0  0  0  0  0
    0.1796   65.6482   70.0319 H   0  0  0  0  0  0  0  0  0  0  0  0
    1.8811   65.0722   70.0319 H   0  0  0  0  0  0  0  0  0  0  0  0
    4.7504   70.5039   66.6586 H   0  0  0  0  0  0  0  0  0  0  0  0
    4.7740   68.7752   67.2696 H   0  0  0  0  0  0  0  0  0  0  0  0
    6.4260   69.2216   65.4733 H   0  0  0  0  0  0  0  0  0  0  0  0
    6.3057   67.1408   64.6750 H   0  0  0  0  0  0  0  0  0  0  0  0
    4.9626   67.0064   65.8923 H   0  0  0  0  0  0  0  0  0  0  0  0
    4.2888   66.0515   63.7386 H   0  0  0  0  0  0  0  0  0  0  0  0
    3.3255   67.5231   64.1410 H   0  0  0  0  0  0  0  0  0  0  0  0
    5.4469   67.1406   62.1682 H   0  0  0  0  0  0  0  0  0  0  0  0
    6.5221   68.9710   62.7747 H   0  0  0  0  0  0  0  0  0  0  0  0
    5.1909   69.7664   61.8554 H   0  0  0  0  0  0  0  0  0  0  0  0
    5.4092   70.8174   64.0427 H   0  0  0  0  0  0  0  0  0  0  0  0
    3.8645   69.8833   63.9607 H   0  0  0  0  0  0  0  0  0  0  0  0
    3.9966   68.3259   60.6201 H   0  0  0  0  0  0  0  0  0  0  0  0
    3.2532   66.8367   61.3685 H   0  0  0  0  0  0  0  0  0  0  0  0
    2.7916   69.4150   62.7645 H   0  0  0  0  0  0  0  0  0  0  0  0
    2.3369   70.3244   60.6261 H   0  0  0  0  0  0  0  0  0  0  0  0
    1.7791   68.7011   59.9882 H   0  0  0  0  0  0  0  0  0  0  0  0
    0.0984   70.7390   60.5151 H   0  0  0  0  0  0  0  0  0  0  0  0
   -0.3301   68.9807   60.6697 H   0  0  0  0  0  0  0  0  0  0  0  0
    0.6079   70.7966   62.9263 H   0  0  0  0  0  0  0  0  0  0  0  0
   -1.0918   70.2562   62.6088 H   0  0  0  0  0  0  0  0  0  0  0  0
    0.4620   68.9989   64.3599 H   0  0  0  0  0  0  0  0  0  0  0  0
   -0.7005   68.1154   63.2578 H   0  0  0  0  0  0  0  0  0  0  0  0
    1.8465   67.3352   63.6178 H   0  0  0  0  0  0  0  0  0  0  0  0
    0.9284   67.1343   62.0642 H   0  0  0  0  0  0  0  0  0  0  0  0
  2  1  1  0
  3  2  2  0
  5  4  2  0
  6  5  1  0
  7  6  2  0
  8  7  1  0
  9  8  2  0
  9  4  1  0
  9  2  1  0
 10  7  1  0
 11  6  1  0
 13 12  1  0
 13  4  1  0
 14  1  1  0
 15 14  1  0
 16 15  1  0
 17 16  1  0
 18 17  1  0
 19 18  1  0
 20 19  1  0
 20 15  1  0
 21 18  1  0
 22 21  1  0
 23 22  1  0
 24 23  1  0
 25 24  1  0
 26 25  1  0
 27 26  1  0
 27 22  1  0
  1 28  1  0
  1 29  1  0
  5 30  1  0
  8 31  1  0
 11 32  1  0
 11 33  1  0
 12 34  1  0
 12 35  1  0
 12 36  1  0
 14 37  1  0
 14 38  1  0
 15 39  1  0
 16 40  1  0
 16 41  1  0
 17 42  1  0
 17 43  1  0
 18 44  1  0
 19 45  1  0
 19 46  1  0
 20 47  1  0
 20 48  1  0
 21 49  1  0
 21 50  1  0
 22 51  1  0
 23 52  1  0
 23 53  1  0
 24 54  1  0
 24 55  1  0
 25 56  1  0
 25 57  1  0
 26 58  1  0
 26 59  1  0
 27 60  1  0
 27 61  1  0
M  CHG  1  18   1
M  END
>  <score>  (6) 
-8.337

$$$$
=
     RDKit          3D

 61 63  0  0  0  0  0  0  0  0999 V2000
    1.6760   59.1750   72.6470 C   0  0  0  0  0  0  0  0  0  0  0  0
    0.6880   58.4730   73.5660 C   0  0  0  0  0  0  0  0  0  0  0  0
   -0.4180   58.9600   73.8040 O   0  0  0  0  0  0  0  0  0  0  0  0
    2.0360   57.0990   75.2670 C   0  0  0  0  0  0  0  0  0  0  0  0
    2.2840   55.8450   75.8500 C   0  0  0  0  0  0  0  0  0  0  0  0
    1.6340   54.6840   75.4060 C   0  0  0  0  0  0  0  0  0  0  0  0
    0.6580   54.8100   74.4090 C   0  0  0  0  0  0  0  0  0  0  0  0
    0.3930   56.0450   73.8200 C   0  0  0  0  0  0  0  0  0  0  0  0
    1.0710   57.1980   74.2480 C   0  0  0  0  0  0  0  0  0  0  0  0
   -0.2340   53.4320   73.8660 Cl  0  0  0  0  0  0  0  0  0  0  0  0
    1.8230   53.4840   76.1130 N   0  0  0  0  0  0  0  0  0  0  0  0
    4.1050   58.2680   75.5480 C   0  0  0  0  0  0  0  0  0  0  0  0
    2.6830   58.2430   75.6460 O   0  0  0  0  0  0  0  0  0  0  0  0
    2.5470   58.1880   71.8550 C   0  0  0  0  0  0  0  0  0  0  0  0
    3.8120   58.8140   71.2270 C   0  0  0  0  0  0  0  0  0  0  0  0
    3.5860   59.3150   69.7890 C   0  0  0  0  0  0  0  0  0  0  0  0
    3.3270   60.8140   69.7330 C   0  0  0  0  0  0  0  0  0  0  0  0
    4.5240   61.5810   70.2660 N   0  0  0  0  0  4  0  0  0  0  0  0
    5.2750   60.8580   71.3770 C   0  0  0  0  0  0  0  0  0  0  0  0
    4.3350   59.9400   72.1360 C   0  0  0  0  0  0  0  0  0  0  0  0
    4.1870   63.0090   70.6600 C   0  0  0  0  0  0  0  0  0  0  0  0
    2.6790   63.2480   70.8470 C   0  0  0  0  0  0  0  0  0  0  0  0
    2.2910   62.9200   72.3060 C   0  0  0  0  0  0  0  0  0  0  0  0
    1.0070   63.6060   72.7800 C   0  0  0  0  0  0  0  0  0  0  0  0
    0.0670   63.9190   71.6260 C   0  0  0  0  0  0  0  0  0  0  0  0
    0.7200   64.8520   70.6080 C   0  0  0  0  0  0  0  0  0  0  0  0
    2.2370   64.6730   70.4890 C   0  0  0  0  0  0  0  0  0  0  0  0
    1.1144   59.7988   71.9361 H   0  0  0  0  0  0  0  0  0  0  0  0
    2.3450   59.7806   73.2760 H   0  0  0  0  0  0  0  0  0  0  0  0
    3.0067   55.7718   76.6761 H   0  0  0  0  0  0  0  0  0  0  0  0
   -0.3524   56.1171   73.0143 H   0  0  0  0  0  0  0  0  0  0  0  0
    1.3530   52.6225   75.8002 H   0  0  0  0  0  0  0  0  0  0  0  0
    2.4315   53.4661   76.9439 H   0  0  0  0  0  0  0  0  0  0  0  0
    4.5420   58.2757   76.5574 H   0  0  0  0  0  0  0  0  0  0  0  0
    4.4509   57.3758   75.0055 H   0  0  0  0  0  0  0  0  0  0  0  0
    4.4193   59.1718   75.0055 H   0  0  0  0  0  0  0  0  0  0  0  0
    2.8630   57.3846   72.5367 H   0  0  0  0  0  0  0  0  0  0  0  0
    1.9295   57.8246   71.0204 H   0  0  0  0  0  0  0  0  0  0  0  0
    4.5718   58.0223   71.1503 H   0  0  0  0  0  0  0  0  0  0  0  0
    4.4808   59.0881   69.1907 H   0  0  0  0  0  0  0  0  0  0  0  0
    2.6964   58.8049   69.3910 H   0  0  0  0  0  0  0  0  0  0  0  0
    3.1422   61.1107   68.6900 H   0  0  0  0  0  0  0  0  0  0  0  0
    2.4499   61.0468   70.3547 H   0  0  0  0  0  0  0  0  0  0  0  0
    5.1722   61.6308   69.4671 H   0  0  0  0  0  0  0  0  0  0  0  0
    6.0881   60.2618   70.9372 H   0  0  0  0  0  0  0  0  0  0  0  0
    5.6883   61.6025   72.0733 H   0  0  0  0  0  0  0  0  0  0  0  0
    4.8741   59.4955   72.9856 H   0  0  0  0  0  0  0  0  0  0  0  0
    3.4779   60.5311   72.4908 H   0  0  0  0  0  0  0  0  0  0  0  0
    4.6973   63.2398   71.6068 H   0  0  0  0  0  0  0  0  0  0  0  0
    4.5213   63.6612   69.8397 H   0  0  0  0  0  0  0  0  0  0  0  0
    2.1548   62.5813   70.1465 H   0  0  0  0  0  0  0  0  0  0  0  0
    2.1530   61.8320   72.3906 H   0  0  0  0  0  0  0  0  0  0  0  0
    3.1053   63.2954   72.9431 H   0  0  0  0  0  0  0  0  0  0  0  0
    0.4904   62.9416   73.4883 H   0  0  0  0  0  0  0  0  0  0  0  0
    1.2868   64.5569   73.2569 H   0  0  0  0  0  0  0  0  0  0  0  0
   -0.2082   62.9795   71.1245 H   0  0  0  0  0  0  0  0  0  0  0  0
   -0.8229   64.4215   72.0329 H   0  0  0  0  0  0  0  0  0  0  0  0
    0.2698   64.6600   69.6229 H   0  0  0  0  0  0  0  0  0  0  0  0
    0.5452   65.8802   70.9576 H   0  0  0  0  0  0  0  0  0  0  0  0
    2.5397   64.8889   69.4537 H   0  0  0  0  0  0  0  0  0  0  0  0
    2.7167   65.3648   71.1971 H   0  0  0  0  0  0  0  0  0  0  0  0
  2  1  1  0
  3  2  2  0
  5  4  2  0
  6  5  1  0
  7  6  2  0
  8  7  1  0
  9  8  2  0
  9  4  1  0
  9  2  1  0
 10  7  1  0
 11  6  1  0
 13 12  1  0
 13  4  1  0
 14  1  1  0
 15 14  1  0
 16 15  1  0
 17 16  1  0
 18 17  1  0
 19 18  1  0
 20 19  1  0
 20 15  1  0
 21 18  1  0
 22 21  1  0
 23 22  1  0
 24 23  1  0
 25 24  1  0
 26 25  1  0
 27 26  1  0
 27 22  1  0
  1 28  1  0
  1 29  1  0
  5 30  1  0
  8 31  1  0
 11 32  1  0
 11 33  1  0
 12 34  1  0
 12 35  1  0
 12 36  1  0
 14 37  1  0
 14 38  1  0
 15 39  1  0
 16 40  1  0
 16 41  1  0
 17 42  1  0
 17 43  1  0
 18 44  1  0
 19 45  1  0
 19 46  1  0
 20 47  1  0
 20 48  1  0
 21 49  1  0
 21 50  1  0
 22 51  1  0
 23 52  1  0
 23 53  1  0
 24 54  1  0
 24 55  1  0
 25 56  1  0
 25 57  1  0
 26 58  1  0
 26 59  1  0
 27 60  1  0
 27 61  1  0
M  CHG  1  18   1
M  END
>  <score>  (7) 
-8.307

$$$$
=
     RDKit          3D

 61 63  0  0  0  0  0  0  0  0999 V2000
    1.8070   64.6820   70.6880 C   0  0  0  0  0  0  0  0  0  0  0  0
    2.2500   63.2850   70.2800 C   0  0  0  0  0  0  0  0  0  0  0  0
    2.5780   63.0330   69.1190 O   0  0  0  0  0  0  0  0  0  0  0  0
    3.3880   61.5180   71.7560 C   0  0  0  0  0  0  0  0  0  0  0  0
    3.2450   60.5040   72.7190 C   0  0  0  0  0  0  0  0  0  0  0  0
    1.9840   60.0900   73.1710 C   0  0  0  0  0  0  0  0  0  0  0  0
    0.8530   60.7720   72.7010 C   0  0  0  0  0  0  0  0  0  0  0  0
    0.9730   61.7840   71.7500 C   0  0  0  0  0  0  0  0  0  0  0  0
    2.2380   62.1710   71.2780 C   0  0  0  0  0  0  0  0  0  0  0  0
   -0.7270   60.3640   73.2730 Cl  0  0  0  0  0  0  0  0  0  0  0  0
    1.9080   59.1670   74.2280 N   0  0  0  0  0  0  0  0  0  0  0  0
    5.6970   61.0130   71.3810 C   0  0  0  0  0  0  0  0  0  0  0  0
    4.6000   61.9150   71.2610 O   0  0  0  0  0  0  0  0  0  0  0  0
    0.3600   64.9850   70.2720 C   0  0  0  0  0  0  0  0  0  0  0  0
    0.1250   66.4340   69.7900 C   0  0  0  0  0  0  0  0  0  0  0  0
    1.4330   67.2130   69.5630 C   0  0  0  0  0  0  0  0  0  0  0  0
    1.8440   67.2380   68.0980 C   0  0  0  0  0  0  0  0  0  0  0  0
    0.7860   67.9340   67.2590 N   0  0  0  0  0  4  0  0  0  0  0  0
   -0.6350   67.7350   67.7720 C   0  0  0  0  0  0  0  0  0  0  0  0
   -0.7460   66.4200   68.5210 C   0  0  0  0  0  0  0  0  0  0  0  0
    0.8940   67.6100   65.7790 C   0  0  0  0  0  0  0  0  0  0  0  0
    2.1220   68.2470   65.1060 C   0  0  0  0  0  0  0  0  0  0  0  0
    2.7860   69.2320   66.0930 C   0  0  0  0  0  0  0  0  0  0  0  0
    4.2620   69.5120   65.7970 C   0  0  0  0  0  0  0  0  0  0  0  0
    4.5970   69.3160   64.3260 C   0  0  0  0  0  0  0  0  0  0  0  0
    4.3160   67.8840   63.8730 C   0  0  0  0  0  0  0  0  0  0  0  0
    3.1480   67.2200   64.6100 C   0  0  0  0  0  0  0  0  0  0  0  0
    1.8859   64.7718   71.7815 H   0  0  0  0  0  0  0  0  0  0  0  0
    2.4603   65.4030   70.1749 H   0  0  0  0  0  0  0  0  0  0  0  0
    4.1455   60.0230   73.1285 H   0  0  0  0  0  0  0  0  0  0  0  0
    0.0708   62.2830   71.3665 H   0  0  0  0  0  0  0  0  0  0  0  0
    0.9895   58.8525   74.5721 H   0  0  0  0  0  0  0  0  0  0  0  0
    2.7708   58.8050   74.6586 H   0  0  0  0  0  0  0  0  0  0  0  0
    5.9118   60.8364   72.4453 H   0  0  0  0  0  0  0  0  0  0  0  0
    5.4425   60.0595   70.8952 H   0  0  0  0  0  0  0  0  0  0  0  0
    6.5834   61.4470   70.8952 H   0  0  0  0  0  0  0  0  0  0  0  0
    0.0868   64.3018   69.4543 H   0  0  0  0  0  0  0  0  0  0  0  0
   -0.2602   64.8482   71.1701 H   0  0  0  0  0  0  0  0  0  0  0  0
   -0.4046   66.9695   70.5917 H   0  0  0  0  0  0  0  0  0  0  0  0
    1.2929   68.2478   69.9087 H   0  0  0  0  0  0  0  0  0  0  0  0
    2.2292   66.7051   70.1271 H   0  0  0  0  0  0  0  0  0  0  0  0
    2.7972   67.7780   67.9989 H   0  0  0  0  0  0  0  0  0  0  0  0
    1.9550   66.2030   67.7425 H   0  0  0  0  0  0  0  0  0  0  0  0
    0.9924   68.9374   67.3659 H   0  0  0  0  0  0  0  0  0  0  0  0
   -0.8951   68.5615   68.4497 H   0  0  0  0  0  0  0  0  0  0  0  0
   -1.3251   67.7180   66.9156 H   0  0  0  0  0  0  0  0  0  0  0  0
   -1.7955   66.2560   68.8066 H   0  0  0  0  0  0  0  0  0  0  0  0
   -0.3951   65.6110   67.8635 H   0  0  0  0  0  0  0  0  0  0  0  0
    0.9599   66.5180   65.6643 H   0  0  0  0  0  0  0  0  0  0  0  0
    0.0011   68.0245   65.2882 H   0  0  0  0  0  0  0  0  0  0  0  0
    1.7648   68.7769   64.2107 H   0  0  0  0  0  0  0  0  0  0  0  0
    2.2383   70.1850   66.0513 H   0  0  0  0  0  0  0  0  0  0  0  0
    2.7448   68.7622   67.0868 H   0  0  0  0  0  0  0  0  0  0  0  0
    4.4892   70.5511   66.0773 H   0  0  0  0  0  0  0  0  0  0  0  0
    4.8656   68.8008   66.3799 H   0  0  0  0  0  0  0  0  0  0  0  0
    3.9871   70.0069   63.7255 H   0  0  0  0  0  0  0  0  0  0  0  0
    5.6694   69.5176   64.1867 H   0  0  0  0  0  0  0  0  0  0  0  0
    4.0837   67.8996   62.7979 H   0  0  0  0  0  0  0  0  0  0  0  0
    5.2157   67.2936   64.1009 H   0  0  0  0  0  0  0  0  0  0  0  0
    2.6472   66.5206   63.9244 H   0  0  0  0  0  0  0  0  0  0  0  0
    3.5545   66.6954   65.4873 H   0  0  0  0  0  0  0  0  0  0  0  0
  2  1  1  0
  3  2  2  0
  5  4  2  0
  6  5  1  0
  7  6  2  0
  8  7  1  0
  9  8  2  0
  9  4  1  0
  9  2  1  0
 10  7  1  0
 11  6  1  0
 13 12  1  0
 13  4  1  0
 14  1  1  0
 15 14  1  0
 16 15  1  0
 17 16  1  0
 18 17  1  0
 19 18  1  0
 20 19  1  0
 20 15  1  0
 21 18  1  0
 22 21  1  0
 23 22  1  0
 24 23  1  0
 25 24  1  0
 26 25  1  0
 27 26  1  0
 27 22  1  0
  1 28  1  0
  1 29  1  0
  5 30  1  0
  8 31  1  0
 11 32  1  0
 11 33  1  0
 12 34  1  0
 12 35  1  0
 12 36  1  0
 14 37  1  0
 14 38  1  0
 15 39  1  0
 16 40  1  0
 16 41  1  0
 17 42  1  0
 17 43  1  0
 18 44  1  0
 19 45  1  0
 19 46  1  0
 20 47  1  0
 20 48  1  0
 21 49  1  0
 21 50  1  0
 22 51  1  0
 23 52  1  0
 23 53  1  0
 24 54  1  0
 24 55  1  0
 25 56  1  0
 25 57  1  0
 26 58  1  0
 26 59  1  0
 27 60  1  0
 27 61  1  0
M  CHG  1  18   1
M  END
>  <score>  (8) 
-8.214

$$$$
=
     RDKit          3D

 61 63  0  0  0  0  0  0  0  0999 V2000
    1.9050   58.9040   72.6220 C   0  0  0  0  0  0  0  0  0  0  0  0
    1.8460   58.1980   73.9680 C   0  0  0  0  0  0  0  0  0  0  0  0
    2.7710   58.2890   74.7770 O   0  0  0  0  0  0  0  0  0  0  0  0
   -0.5420   57.7950   74.8240 C   0  0  0  0  0  0  0  0  0  0  0  0
   -1.5740   56.8740   75.0750 C   0  0  0  0  0  0  0  0  0  0  0  0
   -1.3970   55.4980   74.8770 C   0  0  0  0  0  0  0  0  0  0  0  0
   -0.1820   55.0540   74.3380 C   0  0  0  0  0  0  0  0  0  0  0  0
    0.8530   55.9510   74.0780 C   0  0  0  0  0  0  0  0  0  0  0  0
    0.6800   57.3250   74.3090 C   0  0  0  0  0  0  0  0  0  0  0  0
    0.0760   53.3790   73.9990 Cl  0  0  0  0  0  0  0  0  0  0  0  0
   -2.5030   54.6410   75.0170 N   0  0  0  0  0  0  0  0  0  0  0  0
   -1.4000   59.9070   74.0990 C   0  0  0  0  0  0  0  0  0  0  0  0
   -0.6660   59.1380   75.0480 O   0  0  0  0  0  0  0  0  0  0  0  0
    2.6500   58.0840   71.5580 C   0  0  0  0  0  0  0  0  0  0  0  0
    3.8920   58.7860   70.9660 C   0  0  0  0  0  0  0  0  0  0  0  0
    3.6400   59.3740   69.5650 C   0  0  0  0  0  0  0  0  0  0  0  0
    3.3400   60.8650   69.6110 C   0  0  0  0  0  0  0  0  0  0  0  0
    4.5190   61.6300   70.1860 N   0  0  0  0  0  4  0  0  0  0  0  0
    5.2980   60.8560   71.2420 C   0  0  0  0  0  0  0  0  0  0  0  0
    4.3910   59.8630   71.9440 C   0  0  0  0  0  0  0  0  0  0  0  0
    4.1450   63.0180   70.6760 C   0  0  0  0  0  0  0  0  0  0  0  0
    2.6320   63.2050   70.8760 C   0  0  0  0  0  0  0  0  0  0  0  0
    2.2640   62.8330   72.3300 C   0  0  0  0  0  0  0  0  0  0  0  0
    0.9620   63.4660   72.8260 C   0  0  0  0  0  0  0  0  0  0  0  0
    0.0050   63.7760   71.6850 C   0  0  0  0  0  0  0  0  0  0  0  0
    0.6220   64.7520   70.6850 C   0  0  0  0  0  0  0  0  0  0  0  0
    2.1430   64.6230   70.5530 C   0  0  0  0  0  0  0  0  0  0  0  0
    0.8775   59.0837   72.2729 H   0  0  0  0  0  0  0  0  0  0  0  0
    2.4556   59.8458   72.7632 H   0  0  0  0  0  0  0  0  0  0  0  0
   -2.5454   57.2429   75.4361 H   0  0  0  0  0  0  0  0  0  0  0  0
    1.8125   55.5795   73.6889 H   0  0  0  0  0  0  0  0  0  0  0  0
   -2.3901   53.6271   74.8749 H   0  0  0  0  0  0  0  0  0  0  0  0
   -3.4260   55.0271   75.2616 H   0  0  0  0  0  0  0  0  0  0  0  0
   -2.0657   60.6045   74.6285 H   0  0  0  0  0  0  0  0  0  0  0  0
   -0.7007   60.4752   73.4680 H   0  0  0  0  0  0  0  0  0  0  0  0
   -2.0001   59.2349   73.4680 H   0  0  0  0  0  0  0  0  0  0  0  0
    2.9752   57.1389   72.0173 H   0  0  0  0  0  0  0  0  0  0  0  0
    1.9462   57.9362   70.7257 H   0  0  0  0  0  0  0  0  0  0  0  0
    4.6736   58.0235   70.8329 H   0  0  0  0  0  0  0  0  0  0  0  0
    4.5354   59.2120   68.9469 H   0  0  0  0  0  0  0  0  0  0  0  0
    2.7616   58.8665   69.1396 H   0  0  0  0  0  0  0  0  0  0  0  0
    3.1383   61.2248   68.5913 H   0  0  0  0  0  0  0  0  0  0  0  0
    2.4626   61.0305   70.2535 H   0  0  0  0  0  0  0  0  0  0  0  0
    5.1591   61.7525   69.3884 H   0  0  0  0  0  0  0  0  0  0  0  0
    6.1241   60.3139   70.7586 H   0  0  0  0  0  0  0  0  0  0  0  0
    5.6949   61.5643   71.9842 H   0  0  0  0  0  0  0  0  0  0  0  0
    4.9498   59.3785   72.7582 H   0  0  0  0  0  0  0  0  0  0  0  0
    3.5207   60.4045   72.3432 H   0  0  0  0  0  0  0  0  0  0  0  0
    4.6490   63.1965   71.6373 H   0  0  0  0  0  0  0  0  0  0  0  0
    4.4623   63.7331   69.9027 H   0  0  0  0  0  0  0  0  0  0  0  0
    2.1249   62.5380   70.1633 H   0  0  0  0  0  0  0  0  0  0  0  0
    2.1619   61.7395   72.3916 H   0  0  0  0  0  0  0  0  0  0  0  0
    3.0697   63.2210   72.9705 H   0  0  0  0  0  0  0  0  0  0  0  0
    0.4711   62.7690   73.5211 H   0  0  0  0  0  0  0  0  0  0  0  0
    1.2145   64.4142   73.3232 H   0  0  0  0  0  0  0  0  0  0  0  0
   -0.2442   62.8401   71.1635 H   0  0  0  0  0  0  0  0  0  0  0  0
   -0.8973   64.2411   72.1087 H   0  0  0  0  0  0  0  0  0  0  0  0
    0.1715   64.5687   69.6984 H   0  0  0  0  0  0  0  0  0  0  0  0
    0.4178   65.7660   71.0593 H   0  0  0  0  0  0  0  0  0  0  0  0
    2.4318   64.8714   69.5211 H   0  0  0  0  0  0  0  0  0  0  0  0
    2.6054   65.3133   71.2739 H   0  0  0  0  0  0  0  0  0  0  0  0
  2  1  1  0
  3  2  2  0
  5  4  2  0
  6  5  1  0
  7  6  2  0
  8  7  1  0
  9  8  2  0
  9  4  1  0
  9  2  1  0
 10  7  1  0
 11  6  1  0
 13 12  1  0
 13  4  1  0
 14  1  1  0
 15 14  1  0
 16 15  1  0
 17 16  1  0
 18 17  1  0
 19 18  1  0
 20 19  1  0
 20 15  1  0
 21 18  1  0
 22 21  1  0
 23 22  1  0
 24 23  1  0
 25 24  1  0
 26 25  1  0
 27 26  1  0
 27 22  1  0
  1 28  1  0
  1 29  1  0
  5 30  1  0
  8 31  1  0
 11 32  1  0
 11 33  1  0
 12 34  1  0
 12 35  1  0
 12 36  1  0
 14 37  1  0
 14 38  1  0
 15 39  1  0
 16 40  1  0
 16 41  1  0
 17 42  1  0
 17 43  1  0
 18 44  1  0
 19 45  1  0
 19 46  1  0
 20 47  1  0
 20 48  1  0
 21 49  1  0
 21 50  1  0
 22 51  1  0
 23 52  1  0
 23 53  1  0
 24 54  1  0
 24 55  1  0
 25 56  1  0
 25 57  1  0
 26 58  1  0
 26 59  1  0
 27 60  1  0
 27 61  1  0
M  CHG  1  18   1
M  END
>  <score>  (9) 
-8.125

$$$$
