=
     RDKit          3D

 39 40  0  0  0  0  0  0  0  0999 V2000
    4.5790   68.8200   64.0610 Br  0  0  0  0  0  0  0  0  0  0  0  0
    4.3980   69.4230   65.8420 C   0  0  0  0  0  0  0  0  0  0  0  0
    5.5170   69.8420   66.5470 C   0  0  0  0  0  0  0  0  0  0  0  0
    5.3610   70.2980   67.8560 C   0  0  0  0  0  0  0  0  0  0  0  0
    6.9030   70.9250   68.7730 Br  0  0  0  0  0  0  0  0  0  0  0  0
    4.0980   70.2950   68.4890 C   0  0  0  0  0  0  0  0  0  0  0  0
    2.9650   69.8650   67.7690 C   0  0  0  0  0  0  0  0  0  0  0  0
    3.1350   69.4470   66.4340 C   0  0  0  0  0  0  0  0  0  0  0  0
    3.9230   70.9370   69.7460 N   0  0  0  0  0  0  0  0  0  0  0  0
    1.5790   69.8670   68.3640 C   0  0  0  0  0  0  0  0  0  0  0  0
    0.7790   68.5680   68.4180 N   0  0  2  0  0  4  0  0  0  0  0  0
    1.6340   67.3800   68.7870 C   0  0  0  0  0  0  0  0  0  0  0  0
   -0.2350   68.2470   67.3310 C   0  0  0  0  0  0  0  0  0  0  0  0
   -1.0870   67.0170   67.6950 C   0  0  0  0  0  0  0  0  0  0  0  0
   -2.5860   67.2770   67.5810 C   0  0  0  0  0  0  0  0  0  0  0  0
   -2.9660   67.8900   66.2360 C   0  0  0  0  0  0  0  0  0  0  0  0
   -2.0540   69.0380   65.7950 C   0  0  0  0  0  0  0  0  0  0  0  0
   -1.0440   69.4560   66.8620 C   0  0  0  0  0  0  0  0  0  0  0  0
    6.5128   69.8150   66.0805 H   0  0  0  0  0  0  0  0  0  0  0  0
    2.2574   69.1345   65.8491 H   0  0  0  0  0  0  0  0  0  0  0  0
    2.9999   70.9317   70.2029 H   0  0  0  0  0  0  0  0  0  0  0  0
    4.7194   71.4073   70.1994 H   0  0  0  0  0  0  0  0  0  0  0  0
    1.6765   70.2252   69.3994 H   0  0  0  0  0  0  0  0  0  0  0  0
    1.0021   70.4953   67.6694 H   0  0  0  0  0  0  0  0  0  0  0  0
    0.1333   68.7922   69.1885 H   0  0  0  0  0  0  0  0  0  0  0  0
    1.6936   67.2972   69.8823 H   0  0  0  0  0  0  0  0  0  0  0  0
    1.1868   66.4639   68.3738 H   0  0  0  0  0  0  0  0  0  0  0  0
    2.6447   67.5132   68.3738 H   0  0  0  0  0  0  0  0  0  0  0  0
    0.3416   67.9651   66.4376 H   0  0  0  0  0  0  0  0  0  0  0  0
   -0.8213   66.1930   67.0165 H   0  0  0  0  0  0  0  0  0  0  0  0
   -0.8746   66.7679   68.7452 H   0  0  0  0  0  0  0  0  0  0  0  0
   -3.1206   66.3229   67.6988 H   0  0  0  0  0  0  0  0  0  0  0  0
   -2.8646   67.9930   68.3683 H   0  0  0  0  0  0  0  0  0  0  0  0
   -2.9225   67.1004   65.4714 H   0  0  0  0  0  0  0  0  0  0  0  0
   -3.9752   68.3119   66.3523 H   0  0  0  0  0  0  0  0  0  0  0  0
   -1.5020   68.7198   64.8983 H   0  0  0  0  0  0  0  0  0  0  0  0
   -2.6987   69.9078   65.6003 H   0  0  0  0  0  0  0  0  0  0  0  0
   -0.3609   70.2079   66.4400 H   0  0  0  0  0  0  0  0  0  0  0  0
   -1.5859   69.8783   67.7210 H   0  0  0  0  0  0  0  0  0  0  0  0
  2  1  1  0
  3  2  2  0
  4  3  1  0
  5  4  1  0
  6  4  2  0
  7  6  1  0
  8  7  2  0
  8  2  1  0
  9  6  1  0
 10  7  1  0
 11 10  1  0
 12 11  1  0
 13 11  1  0
 14 13  1  0
 15 14  1  0
 16 15  1  0
 17 16  1  0
 18 17  1  0
 18 13  1  0
  3 19  1  0
  8 20  1  0
  9 21  1  0
  9 22  1  0
 10 23  1  0
 10 24  1  0
 11 25  1  1
 12 26  1  0
 12 27  1  0
 12 28  1  0
 13 29  1  0
 14 30  1  0
 14 31  1  0
 15 32  1  0
 15 33  1  0
 16 34  1  0
 16 35  1  0
 17 36  1  0
 17 37  1  0
 18 38  1  0
 18 39  1  0
M  CHG  1  11   1
M  END
>  <score>  (1) 
-8.727

$$$$
=
     RDKit          3D

 39 40  0  0  0  0  0  0  0  0999 V2000
   -0.0320   69.8260   61.2970 Br  0  0  0  0  0  0  0  0  0  0  0  0
    0.3320   69.2260   63.0510 C   0  0  0  0  0  0  0  0  0  0  0  0
   -0.7070   69.0640   63.9560 C   0  0  0  0  0  0  0  0  0  0  0  0
   -0.4190   68.6050   65.2420 C   0  0  0  0  0  0  0  0  0  0  0  0
   -1.8700   68.3310   66.4380 Br  0  0  0  0  0  0  0  0  0  0  0  0
    0.9090   68.3530   65.6520 C   0  0  0  0  0  0  0  0  0  0  0  0
    1.9610   68.5230   64.7280 C   0  0  0  0  0  0  0  0  0  0  0  0
    1.6480   68.9470   63.4220 C   0  0  0  0  0  0  0  0  0  0  0  0
    1.1680   67.7090   66.8920 N   0  0  0  0  0  0  0  0  0  0  0  0
    3.4000   68.2390   65.0810 C   0  0  0  0  0  0  0  0  0  0  0  0
    4.3260   69.3920   65.4600 N   0  0  2  0  0  4  0  0  0  0  0  0
    5.4070   69.6260   64.4340 C   0  0  0  0  0  0  0  0  0  0  0  0
    4.8320   69.5310   66.8880 C   0  0  0  0  0  0  0  0  0  0  0  0
    6.2460   70.1380   66.9330 C   0  0  0  0  0  0  0  0  0  0  0  0
    6.3500   71.3360   67.8730 C   0  0  0  0  0  0  0  0  0  0  0  0
    5.7860   71.0340   69.2580 C   0  0  0  0  0  0  0  0  0  0  0  0
    4.4330   70.3180   69.2370 C   0  0  0  0  0  0  0  0  0  0  0  0
    3.8330   70.1930   67.8370 C   0  0  0  0  0  0  0  0  0  0  0  0
   -1.7424   69.2939   63.6642 H   0  0  0  0  0  0  0  0  0  0  0  0
    2.4542   69.0601   62.6822 H   0  0  0  0  0  0  0  0  0  0  0  0
    2.1386   67.5280   67.1855 H   0  0  0  0  0  0  0  0  0  0  0  0
    0.3852   67.4232   67.4973 H   0  0  0  0  0  0  0  0  0  0  0  0
    3.3884   67.5450   65.9344 H   0  0  0  0  0  0  0  0  0  0  0  0
    3.8269   67.8660   64.1383 H   0  0  0  0  0  0  0  0  0  0  0  0
    3.6501   70.1691   65.4443 H   0  0  0  0  0  0  0  0  0  0  0  0
    6.3591   69.8321   64.9450 H   0  0  0  0  0  0  0  0  0  0  0  0
    5.5151   68.7304   63.8045 H   0  0  0  0  0  0  0  0  0  0  0  0
    5.1350   70.4861   63.8045 H   0  0  0  0  0  0  0  0  0  0  0  0
    4.9257   68.5106   67.2881 H   0  0  0  0  0  0  0  0  0  0  0  0
    6.9495   69.3636   67.2727 H   0  0  0  0  0  0  0  0  0  0  0  0
    6.4847   70.4928   65.9195 H   0  0  0  0  0  0  0  0  0  0  0  0
    7.4091   71.6149   67.9752 H   0  0  0  0  0  0  0  0  0  0  0  0
    5.7592   72.1566   67.4400 H   0  0  0  0  0  0  0  0  0  0  0  0
    6.5059   70.3975   69.7933 H   0  0  0  0  0  0  0  0  0  0  0  0
    5.6258   72.0025   69.7544 H   0  0  0  0  0  0  0  0  0  0  0  0
    4.5671   69.3074   69.6502 H   0  0  0  0  0  0  0  0  0  0  0  0
    3.7364   70.9234   69.8355 H   0  0  0  0  0  0  0  0  0  0  0  0
    2.9201   69.5814   67.8869 H   0  0  0  0  0  0  0  0  0  0  0  0
    3.5935   71.1981   67.4596 H   0  0  0  0  0  0  0  0  0  0  0  0
  2  1  1  0
  3  2  2  0
  4  3  1  0
  5  4  1  0
  6  4  2  0
  7  6  1  0
  8  7  2  0
  8  2  1  0
  9  6  1  0
 10  7  1  0
 11 10  1  0
 12 11  1  0
 13 11  1  0
 14 13  1  0
 15 14  1  0
 16 15  1  0
 17 16  1  0
 18 17  1  0
 18 13  1  0
  3 19  1  0
  8 20  1  0
  9 21  1  0
  9 22  1  0
 10 23  1  0
 10 24  1  0
 11 25  1  6
 12 26  1  0
 12 27  1  0
 12 28  1  0
 13 29  1  0
 14 30  1  0
 14 31  1  0
 15 32  1  0
 15 33  1  0
 16 34  1  0
 16 35  1  0
 17 36  1  0
 17 37  1  0
 18 38  1  0
 18 39  1  0
M  CHG  1  11   1
M  END
>  <score>  (2) 
-8.301

$$$$
=
     RDKit          3D

 39 40  0  0  0  0  0  0  0  0999 V2000
    0.9310   66.5400   69.8520 Br  0  0  0  0  0  0  0  0  0  0  0  0
    0.7200   67.2830   68.1270 C   0  0  0  0  0  0  0  0  0  0  0  0
   -0.5400   67.6610   67.6860 C   0  0  0  0  0  0  0  0  0  0  0  0
   -0.6720   68.2210   66.4160 C   0  0  0  0  0  0  0  0  0  0  0  0
   -2.4010   68.7870   65.8650 Br  0  0  0  0  0  0  0  0  0  0  0  0
    0.4400   68.3660   65.5570 C   0  0  0  0  0  0  0  0  0  0  0  0
    1.7180   67.9770   66.0100 C   0  0  0  0  0  0  0  0  0  0  0  0
    1.8400   67.4510   67.3110 C   0  0  0  0  0  0  0  0  0  0  0  0
    0.3250   69.1080   64.3500 N   0  0  0  0  0  0  0  0  0  0  0  0
    2.9570   68.1340   65.1650 C   0  0  0  0  0  0  0  0  0  0  0  0
    3.8980   69.3100   65.4160 N   0  0  2  0  0  4  0  0  0  0  0  0
    4.8280   69.5630   64.2540 C   0  0  0  0  0  0  0  0  0  0  0  0
    4.5860   69.4680   66.7630 C   0  0  0  0  0  0  0  0  0  0  0  0
    6.0600   69.8820   66.6030 C   0  0  0  0  0  0  0  0  0  0  0  0
    6.4250   71.1110   67.4310 C   0  0  0  0  0  0  0  0  0  0  0  0
    5.9990   70.9740   68.8890 C   0  0  0  0  0  0  0  0  0  0  0  0
    4.5740   70.4450   69.0740 C   0  0  0  0  0  0  0  0  0  0  0  0
    3.7990   70.3140   67.7640 C   0  0  0  0  0  0  0  0  0  0  0  0
   -1.4216   67.5210   68.3287 H   0  0  0  0  0  0  0  0  0  0  0  0
    2.8333   67.1682   67.6898 H   0  0  0  0  0  0  0  0  0  0  0  0
    1.1399   69.2097   63.7283 H   0  0  0  0  0  0  0  0  0  0  0  0
   -0.5733   69.5440   64.0971 H   0  0  0  0  0  0  0  0  0  0  0  0
    3.5504   67.2169   65.2948 H   0  0  0  0  0  0  0  0  0  0  0  0
    2.5585   68.3340   64.1594 H   0  0  0  0  0  0  0  0  0  0  0  0
    3.2079   70.0711   65.4898 H   0  0  0  0  0  0  0  0  0  0  0  0
    5.8241   69.8340   64.6339 H   0  0  0  0  0  0  0  0  0  0  0  0
    4.9045   68.6530   63.6407 H   0  0  0  0  0  0  0  0  0  0  0  0
    4.4330   70.3863   63.6407 H   0  0  0  0  0  0  0  0  0  0  0  0
    4.5994   68.4711   67.2277 H   0  0  0  0  0  0  0  0  0  0  0  0
    6.6966   69.0431   66.9206 H   0  0  0  0  0  0  0  0  0  0  0  0
    6.2179   70.1380   65.5449 H   0  0  0  0  0  0  0  0  0  0  0  0
    7.5152   71.2522   67.3928 H   0  0  0  0  0  0  0  0  0  0  0  0
    5.8929   71.9742   67.0046 H   0  0  0  0  0  0  0  0  0  0  0  0
    6.6926   70.2816   69.3885 H   0  0  0  0  0  0  0  0  0  0  0  0
    6.0226   71.9841   69.3239 H   0  0  0  0  0  0  0  0  0  0  0  0
    4.6291   69.4533   69.5468 H   0  0  0  0  0  0  0  0  0  0  0  0
    4.0359   71.1744   69.6973 H   0  0  0  0  0  0  0  0  0  0  0  0
    2.8299   69.8330   67.9625 H   0  0  0  0  0  0  0  0  0  0  0  0
    3.6427   71.3167   67.3395 H   0  0  0  0  0  0  0  0  0  0  0  0
  2  1  1  0
  3  2  2  0
  4  3  1  0
  5  4  1  0
  6  4  2  0
  7  6  1  0
  8  7  2  0
  8  2  1  0
  9  6  1  0
 10  7  1  0
 11 10  1  0
 12 11  1  0
 13 11  1  0
 14 13  1  0
 15 14  1  0
 16 15  1  0
 17 16  1  0
 18 17  1  0
 18 13  1  0
  3 19  1  0
  8 20  1  0
  9 21  1  0
  9 22  1  0
 10 23  1  0
 10 24  1  0
 11 25  1  1
 12 26  1  0
 12 27  1  0
 12 28  1  0
 13 29  1  0
 14 30  1  0
 14 31  1  0
 15 32  1  0
 15 33  1  0
 16 34  1  0
 16 35  1  0
 17 36  1  0
 17 37  1  0
 18 38  1  0
 18 39  1  0
M  CHG  1  11   1
M  END
>  <score>  (3) 
-8.098

$$$$
=
     RDKit          3D

 39 40  0  0  0  0  0  0  0  0999 V2000
    5.7560   70.8310   67.8980 Br  0  0  0  0  0  0  0  0  0  0  0  0
    4.8290   69.8610   66.5680 C   0  0  0  0  0  0  0  0  0  0  0  0
    5.3050   69.8460   65.2640 C   0  0  0  0  0  0  0  0  0  0  0  0
    4.6150   69.1120   64.3000 C   0  0  0  0  0  0  0  0  0  0  0  0
    5.3270   69.0600   62.5390 Br  0  0  0  0  0  0  0  0  0  0  0  0
    3.4200   68.4270   64.6140 C   0  0  0  0  0  0  0  0  0  0  0  0
    2.9390   68.4480   65.9400 C   0  0  0  0  0  0  0  0  0  0  0  0
    3.6720   69.1600   66.9100 C   0  0  0  0  0  0  0  0  0  0  0  0
    2.8360   67.5330   63.6750 N   0  0  0  0  0  0  0  0  0  0  0  0
    1.6920   67.7110   66.3590 C   0  0  0  0  0  0  0  0  0  0  0  0
    0.9430   68.1510   67.6150 N   0  0  2  0  0  4  0  0  0  0  0  0
    1.4140   67.4260   68.8520 C   0  0  0  0  0  0  0  0  0  0  0  0
   -0.5670   68.3350   67.5820 C   0  0  0  0  0  0  0  0  0  0  0  0
   -0.9890   69.3890   66.5420 C   0  0  0  0  0  0  0  0  0  0  0  0
   -2.0640   68.8830   65.5840 C   0  0  0  0  0  0  0  0  0  0  0  0
   -3.2480   68.2630   66.3200 C   0  0  0  0  0  0  0  0  0  0  0  0
   -2.8490   67.3020   67.4430 C   0  0  0  0  0  0  0  0  0  0  0  0
   -1.3480   67.0230   67.5010 C   0  0  0  0  0  0  0  0  0  0  0  0
    6.2134   70.4051   64.9952 H   0  0  0  0  0  0  0  0  0  0  0  0
    3.3264   69.1633   67.9543 H   0  0  0  0  0  0  0  0  0  0  0  0
    1.9646   67.0365   63.9098 H   0  0  0  0  0  0  0  0  0  0  0  0
    3.2843   67.3819   62.7601 H   0  0  0  0  0  0  0  0  0  0  0  0
    0.9820   67.7824   65.5219 H   0  0  0  0  0  0  0  0  0  0  0  0
    2.0604   66.7072   66.6171 H   0  0  0  0  0  0  0  0  0  0  0  0
    1.2326   69.1387   67.6524 H   0  0  0  0  0  0  0  0  0  0  0  0
    1.0653   67.9627   69.7466 H   0  0  0  0  0  0  0  0  0  0  0  0
    1.0068   66.4041   68.8555 H   0  0  0  0  0  0  0  0  0  0  0  0
    2.5131   67.3827   68.8555 H   0  0  0  0  0  0  0  0  0  0  0  0
   -0.8548   68.7433   68.5620 H   0  0  0  0  0  0  0  0  0  0  0  0
   -1.3792   70.2695   67.0735 H   0  0  0  0  0  0  0  0  0  0  0  0
   -0.1006   69.6330   65.9411 H   0  0  0  0  0  0  0  0  0  0  0  0
   -2.4259   69.7279   64.9797 H   0  0  0  0  0  0  0  0  0  0  0  0
   -1.6132   68.1028   64.9530 H   0  0  0  0  0  0  0  0  0  0  0  0
   -3.8477   69.0752   66.7566 H   0  0  0  0  0  0  0  0  0  0  0  0
   -3.8089   67.6728   65.5803 H   0  0  0  0  0  0  0  0  0  0  0  0
   -3.1591   67.7403   68.4031 H   0  0  0  0  0  0  0  0  0  0  0  0
   -3.3490   66.3431   67.2416 H   0  0  0  0  0  0  0  0  0  0  0  0
   -1.1263   66.4133   68.3893 H   0  0  0  0  0  0  0  0  0  0  0  0
   -1.0488   66.4842   66.5899 H   0  0  0  0  0  0  0  0  0  0  0  0
  2  1  1  0
  3  2  2  0
  4  3  1  0
  5  4  1  0
  6  4  2  0
  7  6  1  0
  8  7  2  0
  8  2  1  0
  9  6  1  0
 10  7  1  0
 11 10  1  0
 12 11  1  0
 13 11  1  0
 14 13  1  0
 15 14  1  0
 16 15  1  0
 17 16  1  0
 18 17  1  0
 18 13  1  0
  3 19  1  0
  8 20  1  0
  9 21  1  0
  9 22  1  0
 10 23  1  0
 10 24  1  0
 11 25  1  1
 12 26  1  0
 12 27  1  0
 12 28  1  0
 13 29  1  0
 14 30  1  0
 14 31  1  0
 15 32  1  0
 15 33  1  0
 16 34  1  0
 16 35  1  0
 17 36  1  0
 17 37  1  0
 18 38  1  0
 18 39  1  0
M  CHG  1  11   1
M  END
>  <score>  (4) 
-7.944

$$$$
=
     RDKit          3D

 39 40  0  0  0  0  0  0  0  0999 V2000
    5.4560   69.0470   64.0510 Br  0  0  0  0  0  0  0  0  0  0  0  0
    4.9910   69.5340   65.8170 C   0  0  0  0  0  0  0  0  0  0  0  0
    5.9760   69.9450   66.7030 C   0  0  0  0  0  0  0  0  0  0  0  0
    5.6100   70.3150   67.9970 C   0  0  0  0  0  0  0  0  0  0  0  0
    6.9720   70.9350   69.1680 Br  0  0  0  0  0  0  0  0  0  0  0  0
    4.2690   70.2320   68.4340 C   0  0  0  0  0  0  0  0  0  0  0  0
    3.2730   69.8100   67.5290 C   0  0  0  0  0  0  0  0  0  0  0  0
    3.6540   69.4790   66.2140 C   0  0  0  0  0  0  0  0  0  0  0  0
    3.8840   70.7890   69.6840 N   0  0  0  0  0  0  0  0  0  0  0  0
    1.8160   69.7300   67.9110 C   0  0  0  0  0  0  0  0  0  0  0  0
    1.0820   68.3950   67.8100 N   0  0  2  0  0  4  0  0  0  0  0  0
    1.4810   67.4340   68.9040 C   0  0  0  0  0  0  0  0  0  0  0  0
    0.9130   67.7120   66.4620 C   0  0  0  0  0  0  0  0  0  0  0  0
    0.3130   68.6650   65.4130 C   0  0  0  0  0  0  0  0  0  0  0  0
    1.1290   68.7220   64.1240 C   0  0  0  0  0  0  0  0  0  0  0  0
    1.4280   67.3340   63.5670 C   0  0  0  0  0  0  0  0  0  0  0  0
    1.9100   66.3310   64.6190 C   0  0  0  0  0  0  0  0  0  0  0  0
    2.1580   66.9590   65.9890 C   0  0  0  0  0  0  0  0  0  0  0  0
    7.0299   69.9786   66.3898 H   0  0  0  0  0  0  0  0  0  0  0  0
    2.8860   69.1724   65.4887 H   0  0  0  0  0  0  0  0  0  0  0  0
    2.9047   70.7250   69.9966 H   0  0  0  0  0  0  0  0  0  0  0  0
    4.5844   71.2566   70.2771 H   0  0  0  0  0  0  0  0  0  0  0  0
    1.7421   70.0567   68.9587 H   0  0  0  0  0  0  0  0  0  0  0  0
    1.3174   70.3554   67.1558 H   0  0  0  0  0  0  0  0  0  0  0  0
    0.1147   68.7174   67.9561 H   0  0  0  0  0  0  0  0  0  0  0  0
    1.2897   67.8946   69.8844 H   0  0  0  0  0  0  0  0  0  0  0  0
    0.8925   66.5092   68.8123 H   0  0  0  0  0  0  0  0  0  0  0  0
    2.5515   67.1980   68.8123 H   0  0  0  0  0  0  0  0  0  0  0  0
    0.1710   66.9129   66.6066 H   0  0  0  0  0  0  0  0  0  0  0  0
   -0.7038   68.3231   65.1695 H   0  0  0  0  0  0  0  0  0  0  0  0
    0.3130   69.6754   65.8478 H   0  0  0  0  0  0  0  0  0  0  0  0
    0.5629   69.2908   63.3717 H   0  0  0  0  0  0  0  0  0  0  0  0
    2.0893   69.2064   64.3545 H   0  0  0  0  0  0  0  0  0  0  0  0
    0.5089   66.9398   63.1089 H   0  0  0  0  0  0  0  0  0  0  0  0
    2.2463   67.4519   62.8414 H   0  0  0  0  0  0  0  0  0  0  0  0
    1.1465   65.5467   64.7283 H   0  0  0  0  0  0  0  0  0  0  0  0
    2.8720   65.9297   64.2675 H   0  0  0  0  0  0  0  0  0  0  0  0
    2.3996   66.1667   66.7128 H   0  0  0  0  0  0  0  0  0  0  0  0
    2.9961   67.6672   65.9112 H   0  0  0  0  0  0  0  0  0  0  0  0
  2  1  1  0
  3  2  2  0
  4  3  1  0
  5  4  1  0
  6  4  2  0
  7  6  1  0
  8  7  2  0
  8  2  1  0
  9  6  1  0
 10  7  1  0
 11 10  1  0
 12 11  1  0
 13 11  1  0
 14 13  1  0
 15 14  1  0
 16 15  1  0
 17 16  1  0
 18 17  1  0
 18 13  1  0
  3 19  1  0
  8 20  1  0
  9 21  1  0
  9 22  1  0
 10 23  1  0
 10 24  1  0
 11 25  1  1
 12 26  1  0
 12 27  1  0
 12 28  1  0
 13 29  1  0
 14 30  1  0
 14 31  1  0
 15 32  1  0
 15 33  1  0
 16 34  1  0
 16 35  1  0
 17 36  1  0
 17 37  1  0
 18 38  1  0
 18 39  1  0
M  CHG  1  11   1
M  END
>  <score>  (5) 
-7.928

$$$$
=
     RDKit          3D

 39 40  0  0  0  0  0  0  0  0999 V2000
    0.8360   69.1980   68.0280 Br  0  0  0  0  0  0  0  0  0  0  0  0
    2.5950   69.4420   67.3810 C   0  0  0  0  0  0  0  0  0  0  0  0
    3.5550   70.0270   68.1940 C   0  0  0  0  0  0  0  0  0  0  0  0
    4.8510   70.1840   67.7040 C   0  0  0  0  0  0  0  0  0  0  0  0
    6.1600   70.9300   68.8630 Br  0  0  0  0  0  0  0  0  0  0  0  0
    5.1900   69.8050   66.3860 C   0  0  0  0  0  0  0  0  0  0  0  0
    4.2090   69.2140   65.5630 C   0  0  0  0  0  0  0  0  0  0  0  0
    2.9150   69.0250   66.0890 C   0  0  0  0  0  0  0  0  0  0  0  0
    6.5490   69.7940   65.9680 N   0  0  0  0  0  0  0  0  0  0  0  0
    4.5030   68.7510   64.1590 C   0  0  0  0  0  0  0  0  0  0  0  0
    3.7010   67.5970   63.5610 N   0  0  2  0  0  4  0  0  0  0  0  0
    4.5740   66.6020   62.8360 C   0  0  0  0  0  0  0  0  0  0  0  0
    2.3930   67.8690   62.8340 C   0  0  0  0  0  0  0  0  0  0  0  0
    1.1870   67.7990   63.7880 C   0  0  0  0  0  0  0  0  0  0  0  0
    0.2930   69.0330   63.7110 C   0  0  0  0  0  0  0  0  0  0  0  0
   -0.1000   69.3730   62.2760 C   0  0  0  0  0  0  0  0  0  0  0  0
    1.0650   69.3280   61.2840 C   0  0  0  0  0  0  0  0  0  0  0  0
    2.4230   69.1160   61.9500 C   0  0  0  0  0  0  0  0  0  0  0  0
    3.2977   70.3619   69.2097 H   0  0  0  0  0  0  0  0  0  0  0  0
    2.1450   68.5407   65.4705 H   0  0  0  0  0  0  0  0  0  0  0  0
    6.7896   69.5167   65.0057 H   0  0  0  0  0  0  0  0  0  0  0  0
    7.2929   70.0634   66.6275 H   0  0  0  0  0  0  0  0  0  0  0  0
    4.3549   69.6185   63.4991 H   0  0  0  0  0  0  0  0  0  0  0  0
    5.5229   68.3451   64.2306 H   0  0  0  0  0  0  0  0  0  0  0  0
    3.3296   67.1774   64.4252 H   0  0  0  0  0  0  0  0  0  0  0  0
    5.1147   65.9858   63.5695 H   0  0  0  0  0  0  0  0  0  0  0  0
    3.9467   65.9552   62.2051 H   0  0  0  0  0  0  0  0  0  0  0  0
    5.2969   67.1399   62.2051 H   0  0  0  0  0  0  0  0  0  0  0  0
    2.2597   67.0487   62.1133 H   0  0  0  0  0  0  0  0  0  0  0  0
    0.5864   66.9145   63.5293 H   0  0  0  0  0  0  0  0  0  0  0  0
    1.5816   67.7422   64.8132 H   0  0  0  0  0  0  0  0  0  0  0  0
   -0.6211   68.8448   64.2933 H   0  0  0  0  0  0  0  0  0  0  0  0
    0.8585   69.8849   64.1166 H   0  0  0  0  0  0  0  0  0  0  0  0
   -0.8630   68.6524   61.9464 H   0  0  0  0  0  0  0  0  0  0  0  0
   -0.4709   70.4086   62.2845 H   0  0  0  0  0  0  0  0  0  0  0  0
    0.8902   68.5022   60.5786 H   0  0  0  0  0  0  0  0  0  0  0  0
    1.1000   70.3055   60.7807 H   0  0  0  0  0  0  0  0  0  0  0  0
    3.1922   68.9917   61.1736 H   0  0  0  0  0  0  0  0  0  0  0  0
    2.6551   69.9912   62.5746 H   0  0  0  0  0  0  0  0  0  0  0  0
  2  1  1  0
  3  2  2  0
  4  3  1  0
  5  4  1  0
  6  4  2  0
  7  6  1  0
  8  7  2  0
  8  2  1  0
  9  6  1  0
 10  7  1  0
 11 10  1  0
 12 11  1  0
 13 11  1  0
 14 13  1  0
 15 14  1  0
 16 15  1  0
 17 16  1  0
 18 17  1  0
 18 13  1  0
  3 19  1  0
  8 20  1  0
  9 21  1  0
  9 22  1  0
 10 23  1  0
 10 24  1  0
 11 25  1  1
 12 26  1  0
 12 27  1  0
 12 28  1  0
 13 29  1  0
 14 30  1  0
 14 31  1  0
 15 32  1  0
 15 33  1  0
 16 34  1  0
 16 35  1  0
 17 36  1  0
 17 37  1  0
 18 38  1  0
 18 39  1  0
M  CHG  1  11   1
M  END
>  <score>  (6) 
-7.894

$$$$
=
     RDKit          3D

 39 40  0  0  0  0  0  0  0  0999 V2000
   -0.7270   61.8640   72.8900 Br  0  0  0  0  0  0  0  0  0  0  0  0
    0.1790   60.2100   73.0160 C   0  0  0  0  0  0  0  0  0  0  0  0
   -0.3520   59.1870   73.7870 C   0  0  0  0  0  0  0  0  0  0  0  0
    0.3230   57.9690   73.8550 C   0  0  0  0  0  0  0  0  0  0  0  0
   -0.4630   56.5660   74.8680 Br  0  0  0  0  0  0  0  0  0  0  0  0
    1.5570   57.7760   73.1950 C   0  0  0  0  0  0  0  0  0  0  0  0
    2.0950   58.8200   72.4150 C   0  0  0  0  0  0  0  0  0  0  0  0
    1.3780   60.0300   72.3240 C   0  0  0  0  0  0  0  0  0  0  0  0
    2.1340   56.4790   73.1160 N   0  0  0  0  0  0  0  0  0  0  0  0
    3.3880   58.6770   71.6530 C   0  0  0  0  0  0  0  0  0  0  0  0
    4.4900   59.7180   71.8350 N   0  0  2  0  0  4  0  0  0  0  0  0
    4.5740   60.2270   73.2530 C   0  0  0  0  0  0  0  0  0  0  0  0
    4.6830   60.8190   70.8040 C   0  0  0  0  0  0  0  0  0  0  0  0
    3.8350   60.5720   69.5430 C   0  0  0  0  0  0  0  0  0  0  0  0
    2.9810   61.7760   69.1550 C   0  0  0  0  0  0  0  0  0  0  0  0
    3.7950   63.0640   69.0840 C   0  0  0  0  0  0  0  0  0  0  0  0
    4.7390   63.2700   70.2710 C   0  0  0  0  0  0  0  0  0  0  0  0
    4.5620   62.2320   71.3770 C   0  0  0  0  0  0  0  0  0  0  0  0
   -1.2929   59.3345   74.3374 H   0  0  0  0  0  0  0  0  0  0  0  0
    1.7693   60.8454   71.6979 H   0  0  0  0  0  0  0  0  0  0  0  0
    3.0340   56.3442   72.6335 H   0  0  0  0  0  0  0  0  0  0  0  0
    1.6520   55.6742   73.5413 H   0  0  0  0  0  0  0  0  0  0  0  0
    3.8181   57.7042   71.9334 H   0  0  0  0  0  0  0  0  0  0  0  0
    3.0837   58.8055   70.6038 H   0  0  0  0  0  0  0  0  0  0  0  0
    5.3132   59.1385   71.6174 H   0  0  0  0  0  0  0  0  0  0  0  0
    4.4357   59.3891   73.9521 H   0  0  0  0  0  0  0  0  0  0  0  0
    5.5599   60.6852   73.4203 H   0  0  0  0  0  0  0  0  0  0  0  0
    3.7876   60.9777   73.4203 H   0  0  0  0  0  0  0  0  0  0  0  0
    5.7328   60.7644   70.4800 H   0  0  0  0  0  0  0  0  0  0  0  0
    4.5100   60.3367   68.7069 H   0  0  0  0  0  0  0  0  0  0  0  0
    3.1504   59.7398   69.7639 H   0  0  0  0  0  0  0  0  0  0  0  0
    2.5306   61.5874   68.1693 H   0  0  0  0  0  0  0  0  0  0  0  0
    2.2113   61.9065   69.9299 H   0  0  0  0  0  0  0  0  0  0  0  0
    4.3965   63.0427   68.1633 H   0  0  0  0  0  0  0  0  0  0  0  0
    3.0760   63.8963   69.1010 H   0  0  0  0  0  0  0  0  0  0  0  0
    5.7751   63.2161   69.9054 H   0  0  0  0  0  0  0  0  0  0  0  0
    4.5012   64.2514   70.7071 H   0  0  0  0  0  0  0  0  0  0  0  0
    5.3383   62.3810   72.1419 H   0  0  0  0  0  0  0  0  0  0  0  0
    3.5641   62.3524   71.8240 H   0  0  0  0  0  0  0  0  0  0  0  0
  2  1  1  0
  3  2  2  0
  4  3  1  0
  5  4  1  0
  6  4  2  0
  7  6  1  0
  8  7  2  0
  8  2  1  0
  9  6  1  0
 10  7  1  0
 11 10  1  0
 12 11  1  0
 13 11  1  0
 14 13  1  0
 15 14  1  0
 16 15  1  0
 17 16  1  0
 18 17  1  0
 18 13  1  0
  3 19  1  0
  8 20  1  0
  9 21  1  0
  9 22  1  0
 10 23  1  0
 10 24  1  0
 11 25  1  1
 12 26  1  0
 12 27  1  0
 12 28  1  0
 13 29  1  0
 14 30  1  0
 14 31  1  0
 15 32  1  0
 15 33  1  0
 16 34  1  0
 16 35  1  0
 17 36  1  0
 17 37  1  0
 18 38  1  0
 18 39  1  0
M  CHG  1  11   1
M  END
>  <score>  (7) 
-7.695

$$$$
=
     RDKit          3D

 39 40  0  0  0  0  0  0  0  0999 V2000
    1.4030   65.1370   70.5920 Br  0  0  0  0  0  0  0  0  0  0  0  0
    0.7860   66.4640   69.3970 C   0  0  0  0  0  0  0  0  0  0  0  0
   -0.4730   66.3490   68.8250 C   0  0  0  0  0  0  0  0  0  0  0  0
   -0.9160   67.3470   67.9570 C   0  0  0  0  0  0  0  0  0  0  0  0
   -2.6690   67.1930   67.2400 Br  0  0  0  0  0  0  0  0  0  0  0  0
   -0.0910   68.4410   67.6140 C   0  0  0  0  0  0  0  0  0  0  0  0
    1.1880   68.5520   68.1960 C   0  0  0  0  0  0  0  0  0  0  0  0
    1.6040   67.5560   69.1030 C   0  0  0  0  0  0  0  0  0  0  0  0
   -0.6230   69.5410   66.8860 N   0  0  0  0  0  0  0  0  0  0  0  0
    2.1110   69.7090   67.9070 C   0  0  0  0  0  0  0  0  0  0  0  0
    3.4720   69.4470   67.2680 N   0  0  2  0  0  4  0  0  0  0  0  0
    4.5870   70.1970   67.9560 C   0  0  0  0  0  0  0  0  0  0  0  0
    3.6190   69.4380   65.7540 C   0  0  0  0  0  0  0  0  0  0  0  0
    5.0970   69.4690   65.3260 C   0  0  0  0  0  0  0  0  0  0  0  0
    5.4530   68.3630   64.3360 C   0  0  0  0  0  0  0  0  0  0  0  0
    4.4910   68.3140   63.1530 C   0  0  0  0  0  0  0  0  0  0  0  0
    3.0140   68.4070   63.5480 C   0  0  0  0  0  0  0  0  0  0  0  0
    2.7840   68.3630   65.0570 C   0  0  0  0  0  0  0  0  0  0  0  0
   -1.1124   65.4834   69.0528 H   0  0  0  0  0  0  0  0  0  0  0  0
    2.5884   67.6408   69.5864 H   0  0  0  0  0  0  0  0  0  0  0  0
   -0.0170   70.3362   66.6385 H   0  0  0  0  0  0  0  0  0  0  0  0
   -1.6143   69.5424   66.6063 H   0  0  0  0  0  0  0  0  0  0  0  0
    1.5685   70.3901   67.2349 H   0  0  0  0  0  0  0  0  0  0  0  0
    2.3657   70.0904   68.9068 H   0  0  0  0  0  0  0  0  0  0  0  0
    3.5582   68.4373   67.4522 H   0  0  0  0  0  0  0  0  0  0  0  0
    4.4656   70.1154   69.0462 H   0  0  0  0  0  0  0  0  0  0  0  0
    5.5552   69.7658   67.6615 H   0  0  0  0  0  0  0  0  0  0  0  0
    4.5526   71.2563   67.6615 H   0  0  0  0  0  0  0  0  0  0  0  0
    3.1778   70.3780   65.3910 H   0  0  0  0  0  0  0  0  0  0  0  0
    5.3057   70.4413   64.8558 H   0  0  0  0  0  0  0  0  0  0  0  0
    5.7051   69.3115   66.2290 H   0  0  0  0  0  0  0  0  0  0  0  0
    6.4704   68.5409   63.9576 H   0  0  0  0  0  0  0  0  0  0  0  0
    5.3842   67.4016   64.8661 H   0  0  0  0  0  0  0  0  0  0  0  0
    4.7236   69.1547   62.4828 H   0  0  0  0  0  0  0  0  0  0  0  0
    4.6305   67.3360   62.6692 H   0  0  0  0  0  0  0  0  0  0  0  0
    2.6090   69.3538   63.1614 H   0  0  0  0  0  0  0  0  0  0  0  0
    2.5077   67.5305   63.1175 H   0  0  0  0  0  0  0  0  0  0  0  0
    1.7186   68.5387   65.2667 H   0  0  0  0  0  0  0  0  0  0  0  0
    3.0853   67.3752   65.4357 H   0  0  0  0  0  0  0  0  0  0  0  0
  2  1  1  0
  3  2  2  0
  4  3  1  0
  5  4  1  0
  6  4  2  0
  7  6  1  0
  8  7  2  0
  8  2  1  0
  9  6  1  0
 10  7  1  0
 11 10  1  0
 12 11  1  0
 13 11  1  0
 14 13  1  0
 15 14  1  0
 16 15  1  0
 17 16  1  0
 18 17  1  0
 18 13  1  0
  3 19  1  0
  8 20  1  0
  9 21  1  0
  9 22  1  0
 10 23  1  0
 10 24  1  0
 11 25  1  1
 12 26  1  0
 12 27  1  0
 12 28  1  0
 13 29  1  0
 14 30  1  0
 14 31  1  0
 15 32  1  0
 15 33  1  0
 16 34  1  0
 16 35  1  0
 17 36  1  0
 17 37  1  0
 18 38  1  0
 18 39  1  0
M  CHG  1  11   1
M  END
>  <score>  (8) 
-7.583

$$$$
=
     RDKit          3D

 39 40  0  0  0  0  0  0  0  0999 V2000
   -2.2910   60.1480   74.3740 Br  0  0  0  0  0  0  0  0  0  0  0  0
   -0.8680   58.9480   74.0480 C   0  0  0  0  0  0  0  0  0  0  0  0
   -1.0240   57.5980   74.3280 C   0  0  0  0  0  0  0  0  0  0  0  0
    0.0320   56.7270   74.0650 C   0  0  0  0  0  0  0  0  0  0  0  0
   -0.2340   54.8740   74.3980 Br  0  0  0  0  0  0  0  0  0  0  0  0
    1.2680   57.1980   73.5690 C   0  0  0  0  0  0  0  0  0  0  0  0
    1.4220   58.5720   73.2890 C   0  0  0  0  0  0  0  0  0  0  0  0
    0.3300   59.4320   73.5210 C   0  0  0  0  0  0  0  0  0  0  0  0
    2.2620   56.2820   73.1280 N   0  0  0  0  0  0  0  0  0  0  0  0
    2.6970   59.1440   72.7240 C   0  0  0  0  0  0  0  0  0  0  0  0
    2.7060   59.7120   71.3070 N   0  0  2  0  0  4  0  0  0  0  0  0
    3.4210   58.8100   70.3290 C   0  0  0  0  0  0  0  0  0  0  0  0
    3.0040   61.1840   71.0720 C   0  0  0  0  0  0  0  0  0  0  0  0
    4.1530   61.6820   71.9670 C   0  0  0  0  0  0  0  0  0  0  0  0
    5.2520   62.3950   71.1830 C   0  0  0  0  0  0  0  0  0  0  0  0
    4.6960   63.4810   70.2670 C   0  0  0  0  0  0  0  0  0  0  0  0
    3.4730   63.0460   69.4560 C   0  0  0  0  0  0  0  0  0  0  0  0
    3.1470   61.5600   69.5970 C   0  0  0  0  0  0  0  0  0  0  0  0
   -1.9667   57.2208   74.7511 H   0  0  0  0  0  0  0  0  0  0  0  0
    0.4235   60.5018   73.2829 H   0  0  0  0  0  0  0  0  0  0  0  0
    3.1611   56.6319   72.7674 H   0  0  0  0  0  0  0  0  0  0  0  0
    2.0829   55.2685   73.1691 H   0  0  0  0  0  0  0  0  0  0  0  0
    3.0075   59.9575   73.3962 H   0  0  0  0  0  0  0  0  0  0  0  0
    3.3622   58.2707   72.6551 H   0  0  0  0  0  0  0  0  0  0  0  0
    1.6941   59.7134   71.1147 H   0  0  0  0  0  0  0  0  0  0  0  0
    4.0117   58.0648   70.8819 H   0  0  0  0  0  0  0  0  0  0  0  0
    2.6822   58.2962   69.6964 H   0  0  0  0  0  0  0  0  0  0  0  0
    4.0898   59.4121   69.6964 H   0  0  0  0  0  0  0  0  0  0  0  0
    2.1088   61.7385   71.3900 H   0  0  0  0  0  0  0  0  0  0  0  0
    3.7414   62.3816   72.7094 H   0  0  0  0  0  0  0  0  0  0  0  0
    4.6066   60.7998   72.4424 H   0  0  0  0  0  0  0  0  0  0  0  0
    5.9522   62.8565   71.8948 H   0  0  0  0  0  0  0  0  0  0  0  0
    5.7558   61.6475   70.5526 H   0  0  0  0  0  0  0  0  0  0  0  0
    4.4108   64.3437   70.8870 H   0  0  0  0  0  0  0  0  0  0  0  0
    5.4881   63.7227   69.5431 H   0  0  0  0  0  0  0  0  0  0  0  0
    2.6038   63.6273   69.7974 H   0  0  0  0  0  0  0  0  0  0  0  0
    3.7054   63.2277   68.3963 H   0  0  0  0  0  0  0  0  0  0  0  0
    2.2031   61.3448   69.0748 H   0  0  0  0  0  0  0  0  0  0  0  0
    3.9652   60.9715   69.1562 H   0  0  0  0  0  0  0  0  0  0  0  0
  2  1  1  0
  3  2  2  0
  4  3  1  0
  5  4  1  0
  6  4  2  0
  7  6  1  0
  8  7  2  0
  8  2  1  0
  9  6  1  0
 10  7  1  0
 11 10  1  0
 12 11  1  0
 13 11  1  0
 14 13  1  0
 15 14  1  0
 16 15  1  0
 17 16  1  0
 18 17  1  0
 18 13  1  0
  3 19  1  0
  8 20  1  0
  9 21  1  0
  9 22  1  0
 10 23  1  0
 10 24  1  0
 11 25  1  6
 12 26  1  0
 12 27  1  0
 12 28  1  0
 13 29  1  0
 14 30  1  0
 14 31  1  0
 15 32  1  0
 15 33  1  0
 16 34  1  0
 16 35  1  0
 17 36  1  0
 17 37  1  0
 18 38  1  0
 18 39  1  0
M  CHG  1  11   1
M  END
>  <score>  (9) 
-6.96

$$$$
