=
     RDKit          3D

 55 58  0  0  0  0  0  0  0  0999 V2000
    3.3720   62.6980   67.7160 O   0  0  0  0  0  1  0  0  0  0  0  0
    3.4680   61.9420   68.7160 C   0  0  0  0  0  0  0  0  0  0  0  0
    3.3820   62.1570   70.0450 C   0  0  0  0  0  0  0  0  0  0  0  0
    3.3060   61.0530   71.0680 C   0  0  0  0  0  0  0  0  0  0  0  0
    2.2240   61.2970   72.1840 C   0  0  1  0  0  0  0  0  0  0  0  0
    2.9260   61.9270   73.4160 C   0  0  0  0  0  0  0  0  0  0  0  0
    1.1230   62.2600   71.6090 C   0  0  2  0  0  0  0  0  0  0  0  0
    1.6900   63.6370   71.2020 C   0  0  0  0  0  0  0  0  0  0  0  0
    3.0700   63.5090   70.5950 C   0  0  0  0  0  0  0  0  0  0  0  0
    3.8950   64.4170   70.6790 O   0  0  0  0  0  0  0  0  0  0  0  0
   -0.0710   62.4370   72.5540 C   0  0  0  0  0  0  0  0  0  0  0  0
   -0.7020   61.0980   72.9170 C   0  0  0  0  0  0  0  0  0  0  0  0
    0.3190   60.1260   73.5230 C   0  0  2  0  0  0  0  0  0  0  0  0
    1.5400   59.9330   72.5710 C   0  0  2  0  0  0  0  0  0  0  0  0
    2.5250   58.8580   73.1050 C   0  0  0  0  0  0  0  0  0  0  0  0
    1.8310   57.5320   73.4670 C   0  0  0  0  0  0  0  0  0  0  0  0
    0.6610   57.7490   74.4430 C   0  0  1  0  0  0  0  0  0  0  0  0
   -0.3150   58.7530   73.7920 C   0  0  1  0  0  0  0  0  0  0  0  0
   -1.5480   58.6820   74.6870 C   0  0  0  0  0  0  0  0  0  0  0  0
   -1.6170   57.2110   75.1340 C   0  0  0  0  0  0  0  0  0  0  0  0
   -0.2930   56.5360   74.6820 C   0  0  1  0  0  0  0  0  0  0  0  0
   -0.5310   55.6370   73.4620 C   0  0  0  0  0  0  0  0  0  0  0  0
    1.2310   58.2330   75.8070 C   0  0  0  0  0  0  0  0  0  0  0  0
    0.1960   55.6930   75.7240 O   0  0  0  0  0  0  0  0  0  0  0  0
    3.6615   60.8914   68.4539 H   0  0  0  0  0  0  0  0  0  0  0  0
    3.0631   60.1144   70.5484 H   0  0  0  0  0  0  0  0  0  0  0  0
    4.2833   61.0139   71.5714 H   0  0  0  0  0  0  0  0  0  0  0  0
    2.4790   61.5259   74.3376 H   0  0  0  0  0  0  0  0  0  0  0  0
    3.9982   61.6824   73.3919 H   0  0  0  0  0  0  0  0  0  0  0  0
    2.7984   63.0193   73.3919 H   0  0  0  0  0  0  0  0  0  0  0  0
    0.7574   61.7606   70.6997 H   0  0  0  0  0  0  0  0  0  0  0  0
    1.0161   64.0976   70.4646 H   0  0  0  0  0  0  0  0  0  0  0  0
    1.7658   64.2605   72.1050 H   0  0  0  0  0  0  0  0  0  0  0  0
    0.2726   62.9311   73.4748 H   0  0  0  0  0  0  0  0  0  0  0  0
   -0.8290   63.0468   72.0405 H   0  0  0  0  0  0  0  0  0  0  0  0
   -1.5052   61.2707   73.6485 H   0  0  0  0  0  0  0  0  0  0  0  0
   -1.0943   60.6463   71.9939 H   0  0  0  0  0  0  0  0  0  0  0  0
    0.6573   60.5656   74.4729 H   0  0  0  0  0  0  0  0  0  0  0  0
    1.1559   59.5334   71.6208 H   0  0  0  0  0  0  0  0  0  0  0  0
    3.2797   58.6584   72.3300 H   0  0  0  0  0  0  0  0  0  0  0  0
    2.9769   59.2547   74.0261 H   0  0  0  0  0  0  0  0  0  0  0  0
    1.4461   57.0684   72.5467 H   0  0  0  0  0  0  0  0  0  0  0  0
    2.5700   56.8812   73.9573 H   0  0  0  0  0  0  0  0  0  0  0  0
   -0.6078   58.5089   72.7601 H   0  0  0  0  0  0  0  0  0  0  0  0
   -1.4364   59.3473   75.5558 H   0  0  0  0  0  0  0  0  0  0  0  0
   -2.4617   59.0036   74.1657 H   0  0  0  0  0  0  0  0  0  0  0  0
   -1.7163   57.1529   76.2280 H   0  0  0  0  0  0  0  0  0  0  0  0
   -2.4869   56.7060   74.6887 H   0  0  0  0  0  0  0  0  0  0  0  0
   -0.7990   54.6248   73.7991 H   0  0  0  0  0  0  0  0  0  0  0  0
   -1.3506   56.0506   72.8560 H   0  0  0  0  0  0  0  0  0  0  0  0
    0.3859   55.5909   72.8560 H   0  0  0  0  0  0  0  0  0  0  0  0
    0.6722   57.7585   76.6271 H   0  0  0  0  0  0  0  0  0  0  0  0
    2.2933   57.9568   75.8792 H   0  0  0  0  0  0  0  0  0  0  0  0
    1.1306   59.3260   75.8792 H   0  0  0  0  0  0  0  0  0  0  0  0
   -0.0329   56.0877   76.6026 H   0  0  0  0  0  0  0  0  0  0  0  0
  2  1  1  0
  3  2  2  0
  4  3  1  0
  5  4  1  0
  5  6  1  1
  7  5  1  0
  8  7  1  0
  9  3  1  0
  9  8  1  0
 10  9  2  0
 11  7  1  0
 12 11  1  0
 13 12  1  0
 14 13  1  0
 14  5  1  0
 15 14  1  0
 16 15  1  0
 17 16  1  0
 18 17  1  0
 18 13  1  0
 19 18  1  0
 20 19  1  0
 21 20  1  0
 21 17  1  0
 22 21  1  0
 17 23  1  1
 21 24  1  1
  2 25  1  0
  4 26  1  0
  4 27  1  0
  6 28  1  0
  6 29  1  0
  6 30  1  0
  7 31  1  6
  8 32  1  0
  8 33  1  0
 11 34  1  0
 11 35  1  0
 12 36  1  0
 12 37  1  0
 13 38  1  1
 14 39  1  6
 15 40  1  0
 15 41  1  0
 16 42  1  0
 16 43  1  0
 18 44  1  6
 19 45  1  0
 19 46  1  0
 20 47  1  0
 20 48  1  0
 22 49  1  0
 22 50  1  0
 22 51  1  0
 23 52  1  0
 23 53  1  0
 23 54  1  0
 24 55  1  0
M  CHG  1   1  -1
M  END
>  <score>  (1) 
-9.127

$$$$
=
     RDKit          3D

 55 58  0  0  0  0  0  0  0  0999 V2000
    1.8960   65.8130   70.2560 O   0  0  0  0  0  1  0  0  0  0  0  0
    1.5460   64.6370   70.5310 C   0  0  0  0  0  0  0  0  0  0  0  0
    2.0590   63.4270   70.2250 C   0  0  0  0  0  0  0  0  0  0  0  0
    1.5970   62.1390   70.8560 C   0  0  0  0  0  0  0  0  0  0  0  0
    2.7730   61.1840   71.2800 C   0  0  1  0  0  0  0  0  0  0  0  0
    2.9990   60.1510   70.1440 C   0  0  0  0  0  0  0  0  0  0  0  0
    4.0620   62.0540   71.5140 C   0  0  2  0  0  0  0  0  0  0  0  0
    4.5100   62.8080   70.2440 C   0  0  0  0  0  0  0  0  0  0  0  0
    3.3230   63.2950   69.4420 C   0  0  0  0  0  0  0  0  0  0  0  0
    3.3860   63.4360   68.2220 O   0  0  0  0  0  0  0  0  0  0  0  0
    5.2320   61.2490   72.0930 C   0  0  0  0  0  0  0  0  0  0  0  0
    4.8430   60.5500   73.3910 C   0  0  0  0  0  0  0  0  0  0  0  0
    3.6120   59.6520   73.2150 C   0  0  2  0  0  0  0  0  0  0  0  0
    2.4110   60.4580   72.6280 C   0  0  2  0  0  0  0  0  0  0  0  0
    1.1180   59.6000   72.5600 C   0  0  0  0  0  0  0  0  0  0  0  0
    0.7820   58.9090   73.8940 C   0  0  0  0  0  0  0  0  0  0  0  0
    1.9690   58.0850   74.4240 C   0  0  1  0  0  0  0  0  0  0  0  0
    3.1810   59.0340   74.5530 C   0  0  1  0  0  0  0  0  0  0  0  0
    4.1970   58.2080   75.3350 C   0  0  0  0  0  0  0  0  0  0  0  0
    3.3480   57.3680   76.3060 C   0  0  0  0  0  0  0  0  0  0  0  0
    1.8630   57.5550   75.8880 C   0  0  1  0  0  0  0  0  0  0  0  0
    1.1350   58.4800   76.8710 C   0  0  0  0  0  0  0  0  0  0  0  0
    2.2180   56.8900   73.4590 C   0  0  0  0  0  0  0  0  0  0  0  0
    1.1900   56.2970   75.9330 O   0  0  0  0  0  0  0  0  0  0  0  0
    0.6360   64.5837   71.1466 H   0  0  0  0  0  0  0  0  0  0  0  0
    1.0079   62.3833   71.7523 H   0  0  0  0  0  0  0  0  0  0  0  0
    1.0063   61.6039   70.0979 H   0  0  0  0  0  0  0  0  0  0  0  0
    3.2146   59.1654   70.5822 H   0  0  0  0  0  0  0  0  0  0  0  0
    2.0939   60.0858   69.5223 H   0  0  0  0  0  0  0  0  0  0  0  0
    3.8487   60.4697   69.5223 H   0  0  0  0  0  0  0  0  0  0  0  0
    3.7664   62.8003   72.2661 H   0  0  0  0  0  0  0  0  0  0  0  0
    5.1217   63.6734   70.5389 H   0  0  0  0  0  0  0  0  0  0  0  0
    5.0899   62.1148   69.6169 H   0  0  0  0  0  0  0  0  0  0  0  0
    5.5424   60.4913   71.3584 H   0  0  0  0  0  0  0  0  0  0  0  0
    6.0553   61.9454   72.3101 H   0  0  0  0  0  0  0  0  0  0  0  0
    5.6880   59.9317   73.7282 H   0  0  0  0  0  0  0  0  0  0  0  0
    4.5949   61.3242   74.1320 H   0  0  0  0  0  0  0  0  0  0  0  0
    3.8955   58.8511   72.5163 H   0  0  0  0  0  0  0  0  0  0  0  0
    2.1868   61.2730   73.3319 H   0  0  0  0  0  0  0  0  0  0  0  0
    0.2779   60.2539   72.2829 H   0  0  0  0  0  0  0  0  0  0  0  0
    1.2874   58.8094   71.8142 H   0  0  0  0  0  0  0  0  0  0  0  0
    0.5211   59.6768   74.6372 H   0  0  0  0  0  0  0  0  0  0  0  0
   -0.0611   58.2237   73.7220 H   0  0  0  0  0  0  0  0  0  0  0  0
    2.9801   59.9668   75.1003 H   0  0  0  0  0  0  0  0  0  0  0  0
    4.7717   57.5577   74.6591 H   0  0  0  0  0  0  0  0  0  0  0  0
    4.9315   58.8369   75.8594 H   0  0  0  0  0  0  0  0  0  0  0  0
    3.6301   56.3072   76.2341 H   0  0  0  0  0  0  0  0  0  0  0  0
    3.5070   57.6894   77.3459 H   0  0  0  0  0  0  0  0  0  0  0  0
    1.3721   58.1788   77.9021 H   0  0  0  0  0  0  0  0  0  0  0  0
    1.4612   59.5178   76.7080 H   0  0  0  0  0  0  0  0  0  0  0  0
    0.0496   58.4069   76.7080 H   0  0  0  0  0  0  0  0  0  0  0  0
    2.4079   55.9788   74.0452 H   0  0  0  0  0  0  0  0  0  0  0  0
    1.3318   56.7400   72.8248 H   0  0  0  0  0  0  0  0  0  0  0  0
    3.0903   57.1064   72.8248 H   0  0  0  0  0  0  0  0  0  0  0  0
    1.0483   56.0321   76.8763 H   0  0  0  0  0  0  0  0  0  0  0  0
  2  1  1  0
  3  2  2  0
  4  3  1  0
  5  4  1  0
  5  6  1  6
  7  5  1  0
  8  7  1  0
  9  3  1  0
  9  8  1  0
 10  9  2  0
 11  7  1  0
 12 11  1  0
 13 12  1  0
 14 13  1  0
 14  5  1  0
 15 14  1  0
 16 15  1  0
 17 16  1  0
 18 17  1  0
 18 13  1  0
 19 18  1  0
 20 19  1  0
 21 20  1  0
 21 17  1  0
 22 21  1  0
 17 23  1  6
 21 24  1  6
  2 25  1  0
  4 26  1  0
  4 27  1  0
  6 28  1  0
  6 29  1  0
  6 30  1  0
  7 31  1  1
  8 32  1  0
  8 33  1  0
 11 34  1  0
 11 35  1  0
 12 36  1  0
 12 37  1  0
 13 38  1  6
 14 39  1  1
 15 40  1  0
 15 41  1  0
 16 42  1  0
 16 43  1  0
 18 44  1  1
 19 45  1  0
 19 46  1  0
 20 47  1  0
 20 48  1  0
 22 49  1  0
 22 50  1  0
 22 51  1  0
 23 52  1  0
 23 53  1  0
 23 54  1  0
 24 55  1  0
M  CHG  1   1  -1
M  END
>  <score>  (2) 
-8.679

$$$$
=
     RDKit          3D

 55 58  0  0  0  0  0  0  0  0999 V2000
   -4.7220   58.7850   74.9030 O   0  0  0  0  0  1  0  0  0  0  0  0
   -3.7060   59.5120   74.7530 C   0  0  0  0  0  0  0  0  0  0  0  0
   -2.4410   59.4340   75.2130 C   0  0  0  0  0  0  0  0  0  0  0  0
   -1.3160   60.3070   74.7190 C   0  0  0  0  0  0  0  0  0  0  0  0
    0.0210   59.5240   74.4480 C   0  0  1  0  0  0  0  0  0  0  0  0
    0.9260   59.6510   75.7020 C   0  0  0  0  0  0  0  0  0  0  0  0
   -0.3320   58.0190   74.1590 C   0  0  2  0  0  0  0  0  0  0  0  0
   -1.0390   57.3350   75.3480 C   0  0  0  0  0  0  0  0  0  0  0  0
   -1.9880   58.2830   76.0480 C   0  0  0  0  0  0  0  0  0  0  0  0
   -2.2440   58.1670   77.2450 O   0  0  0  0  0  0  0  0  0  0  0  0
    0.8810   57.1930   73.7160 C   0  0  0  0  0  0  0  0  0  0  0  0
    1.5590   57.8030   72.4950 C   0  0  0  0  0  0  0  0  0  0  0  0
    1.9650   59.2640   72.7310 C   0  0  2  0  0  0  0  0  0  0  0  0
    0.7400   60.1190   73.1800 C   0  0  2  0  0  0  0  0  0  0  0  0
    1.1000   61.6250   73.3030 C   0  0  0  0  0  0  0  0  0  0  0  0
    1.7930   62.1820   72.0470 C   0  0  0  0  0  0  0  0  0  0  0  0
    3.0240   61.3460   71.6560 C   0  0  1  0  0  0  0  0  0  0  0  0
    2.5590   59.8870   71.4590 C   0  0  1  0  0  0  0  0  0  0  0  0
    3.7640   59.2130   70.8110 C   0  0  0  0  0  0  0  0  0  0  0  0
    4.3810   60.3020   69.9160 C   0  0  0  0  0  0  0  0  0  0  0  0
    3.6590   61.6350   70.2600 C   0  0  1  0  0  0  0  0  0  0  0  0
    2.6690   62.0160   69.1520 C   0  0  0  0  0  0  0  0  0  0  0  0
    4.1090   61.5070   72.7590 C   0  0  0  0  0  0  0  0  0  0  0  0
    4.6150   62.6920   70.3360 O   0  0  0  0  0  0  0  0  0  0  0  0
   -3.8868   60.3908   74.1165 H   0  0  0  0  0  0  0  0  0  0  0  0
   -1.6342   60.7856   73.7811 H   0  0  0  0  0  0  0  0  0  0  0  0
   -1.1045   61.0382   75.5131 H   0  0  0  0  0  0  0  0  0  0  0  0
    0.3098   59.5645   76.6091 H   0  0  0  0  0  0  0  0  0  0  0  0
    1.6797   58.8498   75.6929 H   0  0  0  0  0  0  0  0  0  0  0  0
    1.4300   60.6287   75.6929 H   0  0  0  0  0  0  0  0  0  0  0  0
   -1.0383   58.0508   73.3163 H   0  0  0  0  0  0  0  0  0  0  0  0
   -1.6075   56.4698   74.9763 H   0  0  0  0  0  0  0  0  0  0  0  0
   -0.2720   57.0183   76.0701 H   0  0  0  0  0  0  0  0  0  0  0  0
    1.6054   57.1507   74.5427 H   0  0  0  0  0  0  0  0  0  0  0  0
    0.5317   56.1849   73.4480 H   0  0  0  0  0  0  0  0  0  0  0  0
    2.4603   57.2177   72.2601 H   0  0  0  0  0  0  0  0  0  0  0  0
    0.8410   57.7809   71.6619 H   0  0  0  0  0  0  0  0  0  0  0  0
    2.7249   59.2620   73.5264 H   0  0  0  0  0  0  0  0  0  0  0  0
   -0.0120   60.0606   72.3793 H   0  0  0  0  0  0  0  0  0  0  0  0
    0.1742   62.1939   73.4740 H   0  0  0  0  0  0  0  0  0  0  0  0
    1.8054   61.7274   74.1408 H   0  0  0  0  0  0  0  0  0  0  0  0
    1.0770   62.1737   71.2119 H   0  0  0  0  0  0  0  0  0  0  0  0
    2.1306   63.2053   72.2679 H   0  0  0  0  0  0  0  0  0  0  0  0
    1.6858   59.7662   70.8010 H   0  0  0  0  0  0  0  0  0  0  0  0
    4.4834   58.8847   71.5756 H   0  0  0  0  0  0  0  0  0  0  0  0
    3.4841   58.3139   70.2424 H   0  0  0  0  0  0  0  0  0  0  0  0
    5.4583   60.3924   70.1190 H   0  0  0  0  0  0  0  0  0  0  0  0
    4.2582   60.0520   68.8518 H   0  0  0  0  0  0  0  0  0  0  0  0
    1.7332   62.3761   69.6043 H   0  0  0  0  0  0  0  0  0  0  0  0
    3.1045   62.8108   68.5285 H   0  0  0  0  0  0  0  0  0  0  0  0
    2.4593   61.1343   68.5285 H   0  0  0  0  0  0  0  0  0  0  0  0
    3.6373   61.4370   73.7503 H   0  0  0  0  0  0  0  0  0  0  0  0
    4.8603   60.7105   72.6533 H   0  0  0  0  0  0  0  0  0  0  0  0
    4.5966   62.4873   72.6533 H   0  0  0  0  0  0  0  0  0  0  0  0
    4.8027   62.8995   71.2856 H   0  0  0  0  0  0  0  0  0  0  0  0
  2  1  1  0
  3  2  2  0
  4  3  1  0
  5  4  1  0
  5  6  1  1
  7  5  1  0
  8  7  1  0
  9  3  1  0
  9  8  1  0
 10  9  2  0
 11  7  1  0
 12 11  1  0
 13 12  1  0
 14 13  1  0
 14  5  1  0
 15 14  1  0
 16 15  1  0
 17 16  1  0
 18 17  1  0
 18 13  1  0
 19 18  1  0
 20 19  1  0
 21 20  1  0
 21 17  1  0
 22 21  1  0
 17 23  1  1
 21 24  1  1
  2 25  1  0
  4 26  1  0
  4 27  1  0
  6 28  1  0
  6 29  1  0
  6 30  1  0
  7 31  1  6
  8 32  1  0
  8 33  1  0
 11 34  1  0
 11 35  1  0
 12 36  1  0
 12 37  1  0
 13 38  1  1
 14 39  1  6
 15 40  1  0
 15 41  1  0
 16 42  1  0
 16 43  1  0
 18 44  1  6
 19 45  1  0
 19 46  1  0
 20 47  1  0
 20 48  1  0
 22 49  1  0
 22 50  1  0
 22 51  1  0
 23 52  1  0
 23 53  1  0
 23 54  1  0
 24 55  1  0
M  CHG  1   1  -1
M  END
>  <score>  (3) 
-8.456

$$$$
=
     RDKit          3D

 55 58  0  0  0  0  0  0  0  0999 V2000
   -2.3260   56.1760   75.2630 O   0  0  0  0  0  1  0  0  0  0  0  0
   -1.5050   57.1270   75.1950 C   0  0  0  0  0  0  0  0  0  0  0  0
   -0.1580   57.1810   75.1880 C   0  0  0  0  0  0  0  0  0  0  0  0
    0.6270   58.4280   74.8700 C   0  0  0  0  0  0  0  0  0  0  0  0
    1.8410   58.1830   73.9000 C   0  0  1  0  0  0  0  0  0  0  0  0
    3.1230   58.0030   74.7550 C   0  0  0  0  0  0  0  0  0  0  0  0
    1.5450   56.8940   73.0480 C   0  0  2  0  0  0  0  0  0  0  0  0
    1.3830   55.6300   73.9190 C   0  0  0  0  0  0  0  0  0  0  0  0
    0.6700   55.9400   75.2170 C   0  0  0  0  0  0  0  0  0  0  0  0
    0.8780   55.2830   76.2360 O   0  0  0  0  0  0  0  0  0  0  0  0
    2.5860   56.6510   71.9490 C   0  0  0  0  0  0  0  0  0  0  0  0
    2.7160   57.8560   71.0240 C   0  0  0  0  0  0  0  0  0  0  0  0
    3.0460   59.1410   71.7960 C   0  0  2  0  0  0  0  0  0  0  0  0
    1.9930   59.4040   72.9180 C   0  0  2  0  0  0  0  0  0  0  0  0
    2.2340   60.7640   73.6290 C   0  0  0  0  0  0  0  0  0  0  0  0
    2.3710   61.9410   72.6460 C   0  0  0  0  0  0  0  0  0  0  0  0
    3.4470   61.6720   71.5800 C   0  0  1  0  0  0  0  0  0  0  0  0
    3.0780   60.3570   70.8590 C   0  0  1  0  0  0  0  0  0  0  0  0
    4.0230   60.3300   69.6620 C   0  0  0  0  0  0  0  0  0  0  0  0
    4.1710   61.8060   69.2530 C   0  0  0  0  0  0  0  0  0  0  0  0
    3.5040   62.6560   70.3700 C   0  0  1  0  0  0  0  0  0  0  0  0
    2.1490   63.2010   69.9010 C   0  0  0  0  0  0  0  0  0  0  0  0
    4.8390   61.6280   72.2750 C   0  0  0  0  0  0  0  0  0  0  0  0
    4.3210   63.7880   70.6640 O   0  0  0  0  0  0  0  0  0  0  0  0
   -1.9836   58.1151   75.1276 H   0  0  0  0  0  0  0  0  0  0  0  0
   -0.0517   59.1547   74.3997 H   0  0  0  0  0  0  0  0  0  0  0  0
    1.0441   58.7952   75.8193 H   0  0  0  0  0  0  0  0  0  0  0  0
    2.8600   58.0399   75.8225 H   0  0  0  0  0  0  0  0  0  0  0  0
    3.5841   57.0313   74.5244 H   0  0  0  0  0  0  0  0  0  0  0  0
    3.8339   58.8101   74.5244 H   0  0  0  0  0  0  0  0  0  0  0  0
    0.5815   57.0938   72.5563 H   0  0  0  0  0  0  0  0  0  0  0  0
    0.8001   54.8830   73.3603 H   0  0  0  0  0  0  0  0  0  0  0  0
    2.3850   55.2446   74.1586 H   0  0  0  0  0  0  0  0  0  0  0  0
    3.5613   56.4540   72.4181 H   0  0  0  0  0  0  0  0  0  0  0  0
    2.2583   55.7896   71.3485 H   0  0  0  0  0  0  0  0  0  0  0  0
    3.5195   57.6615   70.2983 H   0  0  0  0  0  0  0  0  0  0  0  0
    1.7499   58.0020   70.5187 H   0  0  0  0  0  0  0  0  0  0  0  0
    4.0393   59.0000   72.2470 H   0  0  0  0  0  0  0  0  0  0  0  0
    1.0105   59.4959   72.4319 H   0  0  0  0  0  0  0  0  0  0  0  0
    1.3852   60.9643   74.2994 H   0  0  0  0  0  0  0  0  0  0  0  0
    3.1826   60.6835   74.1801 H   0  0  0  0  0  0  0  0  0  0  0  0
    1.4050   62.1006   72.1446 H   0  0  0  0  0  0  0  0  0  0  0  0
    2.6711   62.8314   73.2180 H   0  0  0  0  0  0  0  0  0  0  0  0
    2.0406   60.3052   70.4970 H   0  0  0  0  0  0  0  0  0  0  0  0
    4.9975   59.9058   69.9457 H   0  0  0  0  0  0  0  0  0  0  0  0
    3.6401   59.7055   68.8414 H   0  0  0  0  0  0  0  0  0  0  0  0
    5.2355   62.0683   69.1635 H   0  0  0  0  0  0  0  0  0  0  0  0
    3.6942   61.9933   68.2796 H   0  0  0  0  0  0  0  0  0  0  0  0
    1.5309   63.4496   70.7763 H   0  0  0  0  0  0  0  0  0  0  0  0
    2.3074   64.1054   69.2952 H   0  0  0  0  0  0  0  0  0  0  0  0
    1.6370   62.4388   69.2952 H   0  0  0  0  0  0  0  0  0  0  0  0
    4.7041   61.6323   73.3667 H   0  0  0  0  0  0  0  0  0  0  0  0
    5.3700   60.7126   71.9747 H   0  0  0  0  0  0  0  0  0  0  0  0
    5.4267   62.5080   71.9747 H   0  0  0  0  0  0  0  0  0  0  0  0
    4.3974   63.8939   71.6454 H   0  0  0  0  0  0  0  0  0  0  0  0
  2  1  1  0
  3  2  2  0
  4  3  1  0
  5  4  1  0
  5  6  1  1
  7  5  1  0
  8  7  1  0
  9  3  1  0
  9  8  1  0
 10  9  2  0
 11  7  1  0
 12 11  1  0
 13 12  1  0
 14 13  1  0
 14  5  1  0
 15 14  1  0
 16 15  1  0
 17 16  1  0
 18 17  1  0
 18 13  1  0
 19 18  1  0
 20 19  1  0
 21 20  1  0
 21 17  1  0
 22 21  1  0
 17 23  1  1
 21 24  1  1
  2 25  1  0
  4 26  1  0
  4 27  1  0
  6 28  1  0
  6 29  1  0
  6 30  1  0
  7 31  1  6
  8 32  1  0
  8 33  1  0
 11 34  1  0
 11 35  1  0
 12 36  1  0
 12 37  1  0
 13 38  1  1
 14 39  1  6
 15 40  1  0
 15 41  1  0
 16 42  1  0
 16 43  1  0
 18 44  1  6
 19 45  1  0
 19 46  1  0
 20 47  1  0
 20 48  1  0
 22 49  1  0
 22 50  1  0
 22 51  1  0
 23 52  1  0
 23 53  1  0
 23 54  1  0
 24 55  1  0
M  CHG  1   1  -1
M  END
>  <score>  (4) 
-8.261

$$$$
=
     RDKit          3D

 55 58  0  0  0  0  0  0  0  0999 V2000
    3.7870   58.1910   69.9440 O   0  0  0  0  0  1  0  0  0  0  0  0
    3.1640   58.0660   71.0290 C   0  0  0  0  0  0  0  0  0  0  0  0
    2.9560   58.8950   72.0730 C   0  0  0  0  0  0  0  0  0  0  0  0
    1.9780   58.6110   73.1840 C   0  0  0  0  0  0  0  0  0  0  0  0
    1.0970   59.8520   73.5840 C   0  0  1  0  0  0  0  0  0  0  0  0
    1.7580   60.5500   74.8020 C   0  0  0  0  0  0  0  0  0  0  0  0
    1.0180   60.8260   72.3520 C   0  0  2  0  0  0  0  0  0  0  0  0
    2.4030   61.3570   71.9240 C   0  0  0  0  0  0  0  0  0  0  0  0
    3.4720   60.2950   72.0670 C   0  0  0  0  0  0  0  0  0  0  0  0
    4.6440   60.5910   72.2920 O   0  0  0  0  0  0  0  0  0  0  0  0
    0.0470   61.9920   72.5700 C   0  0  0  0  0  0  0  0  0  0  0  0
   -1.3510   61.4980   72.9220 C   0  0  0  0  0  0  0  0  0  0  0  0
   -1.3440   60.5720   74.1460 C   0  0  2  0  0  0  0  0  0  0  0  0
   -0.3620   59.3780   73.9370 C   0  0  2  0  0  0  0  0  0  0  0  0
   -0.4320   58.3610   75.1090 C   0  0  0  0  0  0  0  0  0  0  0  0
   -1.8690   57.9080   75.4280 C   0  0  0  0  0  0  0  0  0  0  0  0
   -2.8040   59.1060   75.6730 C   0  0  1  0  0  0  0  0  0  0  0  0
   -2.7470   60.0120   74.4240 C   0  0  1  0  0  0  0  0  0  0  0  0
   -3.8940   60.9920   74.6430 C   0  0  0  0  0  0  0  0  0  0  0  0
   -4.9790   60.1650   75.3550 C   0  0  0  0  0  0  0  0  0  0  0  0
   -4.3340   58.8050   75.7400 C   0  0  1  0  0  0  0  0  0  0  0  0
   -4.8260   57.6890   74.8100 C   0  0  0  0  0  0  0  0  0  0  0  0
   -2.3620   59.8240   76.9810 C   0  0  0  0  0  0  0  0  0  0  0  0
   -4.7310   58.4430   77.0620 O   0  0  0  0  0  0  0  0  0  0  0  0
    2.6925   57.0798   71.1521 H   0  0  0  0  0  0  0  0  0  0  0  0
    1.3090   57.8005   72.8590 H   0  0  0  0  0  0  0  0  0  0  0  0
    2.5691   58.3374   74.0704 H   0  0  0  0  0  0  0  0  0  0  0  0
    1.3544   60.1238   75.7323 H   0  0  0  0  0  0  0  0  0  0  0  0
    2.8462   60.3929   74.7686 H   0  0  0  0  0  0  0  0  0  0  0  0
    1.5419   61.6281   74.7686 H   0  0  0  0  0  0  0  0  0  0  0  0
    0.6204   60.2116   71.5308 H   0  0  0  0  0  0  0  0  0  0  0  0
    2.3543   61.6760   70.8724 H   0  0  0  0  0  0  0  0  0  0  0  0
    2.6660   62.2020   72.5774 H   0  0  0  0  0  0  0  0  0  0  0  0
    0.4215   62.6198   73.3920 H   0  0  0  0  0  0  0  0  0  0  0  0
   -0.0162   62.5672   71.6345 H   0  0  0  0  0  0  0  0  0  0  0  0
   -1.9904   62.3667   73.1379 H   0  0  0  0  0  0  0  0  0  0  0  0
   -1.7337   60.9244   72.0650 H   0  0  0  0  0  0  0  0  0  0  0  0
   -1.0138   61.1747   75.0049 H   0  0  0  0  0  0  0  0  0  0  0  0
   -0.6999   58.8265   73.0473 H   0  0  0  0  0  0  0  0  0  0  0  0
    0.1632   57.4757   74.8408 H   0  0  0  0  0  0  0  0  0  0  0  0
   -0.0392   58.8640   76.0049 H   0  0  0  0  0  0  0  0  0  0  0  0
   -2.2545   57.3228   74.5801 H   0  0  0  0  0  0  0  0  0  0  0  0
   -1.8412   57.3022   76.3458 H   0  0  0  0  0  0  0  0  0  0  0  0
   -2.9008   59.4906   73.4677 H   0  0  0  0  0  0  0  0  0  0  0  0
   -3.5709   61.8337   75.2732 H   0  0  0  0  0  0  0  0  0  0  0  0
   -4.2543   61.4305   73.7007 H   0  0  0  0  0  0  0  0  0  0  0  0
   -5.3217   60.6899   76.2589 H   0  0  0  0  0  0  0  0  0  0  0  0
   -5.8506   60.0149   74.7009 H   0  0  0  0  0  0  0  0  0  0  0  0
   -5.1973   56.8468   75.4124 H   0  0  0  0  0  0  0  0  0  0  0  0
   -5.6386   58.0722   74.1753 H   0  0  0  0  0  0  0  0  0  0  0  0
   -3.9950   57.3476   74.1753 H   0  0  0  0  0  0  0  0  0  0  0  0
   -2.7148   59.2509   77.8511 H   0  0  0  0  0  0  0  0  0  0  0  0
   -1.2645   59.8935   77.0082 H   0  0  0  0  0  0  0  0  0  0  0  0
   -2.7942   60.8352   77.0082 H   0  0  0  0  0  0  0  0  0  0  0  0
   -4.1839   58.9419   77.7191 H   0  0  0  0  0  0  0  0  0  0  0  0
  2  1  1  0
  3  2  2  0
  4  3  1  0
  5  4  1  0
  5  6  1  1
  7  5  1  0
  8  7  1  0
  9  3  1  0
  9  8  1  0
 10  9  2  0
 11  7  1  0
 12 11  1  0
 13 12  1  0
 14 13  1  0
 14  5  1  0
 15 14  1  0
 16 15  1  0
 17 16  1  0
 18 17  1  0
 18 13  1  0
 19 18  1  0
 20 19  1  0
 21 20  1  0
 21 17  1  0
 22 21  1  0
 17 23  1  1
 21 24  1  1
  2 25  1  0
  4 26  1  0
  4 27  1  0
  6 28  1  0
  6 29  1  0
  6 30  1  0
  7 31  1  6
  8 32  1  0
  8 33  1  0
 11 34  1  0
 11 35  1  0
 12 36  1  0
 12 37  1  0
 13 38  1  1
 14 39  1  6
 15 40  1  0
 15 41  1  0
 16 42  1  0
 16 43  1  0
 18 44  1  6
 19 45  1  0
 19 46  1  0
 20 47  1  0
 20 48  1  0
 22 49  1  0
 22 50  1  0
 22 51  1  0
 23 52  1  0
 23 53  1  0
 23 54  1  0
 24 55  1  0
M  CHG  1   1  -1
M  END
>  <score>  (5) 
-7.996

$$$$
=
     RDKit          3D

 55 58  0  0  0  0  0  0  0  0999 V2000
    5.0820   63.7390   70.5560 O   0  0  0  0  0  1  0  0  0  0  0  0
    3.9700   63.1770   70.7260 C   0  0  0  0  0  0  0  0  0  0  0  0
    3.6150   61.9260   71.0860 C   0  0  0  0  0  0  0  0  0  0  0  0
    2.2080   61.5280   71.4490 C   0  0  0  0  0  0  0  0  0  0  0  0
    2.1170   60.6200   72.7300 C   0  0  1  0  0  0  0  0  0  0  0  0
    2.0570   59.1370   72.2770 C   0  0  0  0  0  0  0  0  0  0  0  0
    3.3860   60.8860   73.6210 C   0  0  2  0  0  0  0  0  0  0  0  0
    4.7040   60.5390   72.8970 C   0  0  0  0  0  0  0  0  0  0  0  0
    4.6390   60.8960   71.4280 C   0  0  0  0  0  0  0  0  0  0  0  0
    5.2940   60.2800   70.5880 O   0  0  0  0  0  0  0  0  0  0  0  0
    3.3240   60.1770   74.9790 C   0  0  0  0  0  0  0  0  0  0  0  0
    2.0670   60.5580   75.7530 C   0  0  0  0  0  0  0  0  0  0  0  0
    0.7900   60.2820   74.9480 C   0  0  2  0  0  0  0  0  0  0  0  0
    0.8360   60.9990   73.5630 C   0  0  2  0  0  0  0  0  0  0  0  0
   -0.4980   60.8380   72.7840 C   0  0  0  0  0  0  0  0  0  0  0  0
   -1.7330   61.2240   73.6180 C   0  0  0  0  0  0  0  0  0  0  0  0
   -1.7750   60.4670   74.9580 C   0  0  1  0  0  0  0  0  0  0  0  0
   -0.4570   60.7600   75.7070 C   0  0  1  0  0  0  0  0  0  0  0  0
   -0.7140   60.2120   77.1070 C   0  0  0  0  0  0  0  0  0  0  0  0
   -2.2080   60.4820   77.3600 C   0  0  0  0  0  0  0  0  0  0  0  0
   -2.8180   60.9550   76.0110 C   0  0  1  0  0  0  0  0  0  0  0  0
   -3.0740   62.4670   76.0320 C   0  0  0  0  0  0  0  0  0  0  0  0
   -2.0020   58.9540   74.6700 C   0  0  0  0  0  0  0  0  0  0  0  0
   -4.0850   60.3280   75.8130 O   0  0  0  0  0  0  0  0  0  0  0  0
    3.1117   63.8405   70.5442 H   0  0  0  0  0  0  0  0  0  0  0  0
    1.6243   62.4427   71.6298 H   0  0  0  0  0  0  0  0  0  0  0  0
    1.8145   60.9375   70.6085 H   0  0  0  0  0  0  0  0  0  0  0  0
    2.0306   58.4841   73.1619 H   0  0  0  0  0  0  0  0  0  0  0  0
    1.1515   58.9741   71.6740 H   0  0  0  0  0  0  0  0  0  0  0  0
    2.9464   58.9015   71.6740 H   0  0  0  0  0  0  0  0  0  0  0  0
    3.3772   61.9695   73.8105 H   0  0  0  0  0  0  0  0  0  0  0  0
    5.5272   61.0987   73.3650 H   0  0  0  0  0  0  0  0  0  0  0  0
    4.8701   59.4550   72.9822 H   0  0  0  0  0  0  0  0  0  0  0  0
    3.3262   59.0894   74.8145 H   0  0  0  0  0  0  0  0  0  0  0  0
    4.1991   60.4863   75.5694 H   0  0  0  0  0  0  0  0  0  0  0  0
    2.0328   59.9738   76.6844 H   0  0  0  0  0  0  0  0  0  0  0  0
    2.1105   61.6372   75.9614 H   0  0  0  0  0  0  0  0  0  0  0  0
    0.7330   59.1938   74.7980 H   0  0  0  0  0  0  0  0  0  0  0  0
    0.9362   62.0775   73.7548 H   0  0  0  0  0  0  0  0  0  0  0  0
   -0.4627   61.4809   71.8921 H   0  0  0  0  0  0  0  0  0  0  0  0
   -0.5985   59.7747   72.5207 H   0  0  0  0  0  0  0  0  0  0  0  0
   -1.7030   62.3049   73.8201 H   0  0  0  0  0  0  0  0  0  0  0  0
   -2.6319   60.9549   73.0440 H   0  0  0  0  0  0  0  0  0  0  0  0
   -0.1964   61.8260   75.7830 H   0  0  0  0  0  0  0  0  0  0  0  0
   -0.5019   59.1334   77.1470 H   0  0  0  0  0  0  0  0  0  0  0  0
   -0.0703   60.6830   77.8645 H   0  0  0  0  0  0  0  0  0  0  0  0
   -2.7065   59.5616   77.6981 H   0  0  0  0  0  0  0  0  0  0  0  0
   -2.3427   61.2447   78.1411 H   0  0  0  0  0  0  0  0  0  0  0  0
   -3.1328   62.8145   77.0740 H   0  0  0  0  0  0  0  0  0  0  0  0
   -2.2508   62.9854   75.5185 H   0  0  0  0  0  0  0  0  0  0  0  0
   -4.0219   62.6856   75.5185 H   0  0  0  0  0  0  0  0  0  0  0  0
   -2.0839   58.4079   75.6214 H   0  0  0  0  0  0  0  0  0  0  0  0
   -2.9294   58.8258   74.0926 H   0  0  0  0  0  0  0  0  0  0  0  0
   -1.1530   58.5593   74.0926 H   0  0  0  0  0  0  0  0  0  0  0  0
   -4.4939   60.1256   76.6916 H   0  0  0  0  0  0  0  0  0  0  0  0
  2  1  1  0
  3  2  2  0
  4  3  1  0
  5  4  1  0
  5  6  1  6
  7  5  1  0
  8  7  1  0
  9  3  1  0
  9  8  1  0
 10  9  2  0
 11  7  1  0
 12 11  1  0
 13 12  1  0
 14 13  1  0
 14  5  1  0
 15 14  1  0
 16 15  1  0
 17 16  1  0
 18 17  1  0
 18 13  1  0
 19 18  1  0
 20 19  1  0
 21 20  1  0
 21 17  1  0
 22 21  1  0
 17 23  1  6
 21 24  1  6
  2 25  1  0
  4 26  1  0
  4 27  1  0
  6 28  1  0
  6 29  1  0
  6 30  1  0
  7 31  1  1
  8 32  1  0
  8 33  1  0
 11 34  1  0
 11 35  1  0
 12 36  1  0
 12 37  1  0
 13 38  1  6
 14 39  1  1
 15 40  1  0
 15 41  1  0
 16 42  1  0
 16 43  1  0
 18 44  1  1
 19 45  1  0
 19 46  1  0
 20 47  1  0
 20 48  1  0
 22 49  1  0
 22 50  1  0
 22 51  1  0
 23 52  1  0
 23 53  1  0
 23 54  1  0
 24 55  1  0
M  CHG  1   1  -1
M  END
>  <score>  (6) 
-7.72

$$$$
=
     RDKit          3D

 55 58  0  0  0  0  0  0  0  0999 V2000
    3.3590   60.5780   69.2560 O   0  0  0  0  0  1  0  0  0  0  0  0
    3.4210   59.7260   70.1790 C   0  0  0  0  0  0  0  0  0  0  0  0
    3.2460   59.8000   71.5140 C   0  0  0  0  0  0  0  0  0  0  0  0
    3.1480   58.5930   72.4120 C   0  0  0  0  0  0  0  0  0  0  0  0
    1.9910   58.6870   73.4750 C   0  0  1  0  0  0  0  0  0  0  0  0
    2.5910   59.2080   74.8080 C   0  0  0  0  0  0  0  0  0  0  0  0
    0.8920   59.6700   72.9290 C   0  0  2  0  0  0  0  0  0  0  0  0
    1.4310   61.0980   72.7020 C   0  0  0  0  0  0  0  0  0  0  0  0
    2.8500   61.0770   72.1760 C   0  0  0  0  0  0  0  0  0  0  0  0
    3.6330   61.9970   72.4060 O   0  0  0  0  0  0  0  0  0  0  0  0
   -0.3640   59.7120   73.8080 C   0  0  0  0  0  0  0  0  0  0  0  0
   -0.9660   58.3230   73.9910 C   0  0  0  0  0  0  0  0  0  0  0  0
    0.0520   57.3260   74.5610 C   0  0  2  0  0  0  0  0  0  0  0  0
    1.3360   57.2700   73.6760 C   0  0  2  0  0  0  0  0  0  0  0  0
    2.3260   56.1760   74.1620 C   0  0  0  0  0  0  0  0  0  0  0  0
    1.6600   54.8000   74.3410 C   0  0  0  0  0  0  0  0  0  0  0  0
    0.4250   54.8780   75.2550 C   0  0  1  0  0  0  0  0  0  0  0  0
   -0.5460   55.9140   74.6480 C   0  0  1  0  0  0  0  0  0  0  0  0
   -1.8280   55.7120   75.4480 C   0  0  0  0  0  0  0  0  0  0  0  0
   -1.8700   54.2010   75.7380 C   0  0  0  0  0  0  0  0  0  0  0  0
   -0.4960   53.6180   75.3070 C   0  0  1  0  0  0  0  0  0  0  0  0
   -0.6240   52.8430   73.9900 C   0  0  0  0  0  0  0  0  0  0  0  0
    0.8910   55.2360   76.6960 C   0  0  0  0  0  0  0  0  0  0  0  0
   -0.0410   52.6870   76.2880 O   0  0  0  0  0  0  0  0  0  0  0  0
    3.6684   58.7143   69.8252 H   0  0  0  0  0  0  0  0  0  0  0  0
    2.9719   57.7068   71.7846 H   0  0  0  0  0  0  0  0  0  0  0  0
    4.0934   58.5307   72.9708 H   0  0  0  0  0  0  0  0  0  0  0  0
    2.0601   58.7470   75.6540 H   0  0  0  0  0  0  0  0  0  0  0  0
    3.6579   58.9450   74.8574 H   0  0  0  0  0  0  0  0  0  0  0  0
    2.4802   60.3013   74.8574 H   0  0  0  0  0  0  0  0  0  0  0  0
    0.6023   59.2561   71.9519 H   0  0  0  0  0  0  0  0  0  0  0  0
    0.7870   61.6117   71.9731 H   0  0  0  0  0  0  0  0  0  0  0  0
    1.4279   61.6260   73.6670 H   0  0  0  0  0  0  0  0  0  0  0  0
   -0.0962   60.1181   74.7946 H   0  0  0  0  0  0  0  0  0  0  0  0
   -1.1110   60.3487   73.3115 H   0  0  0  0  0  0  0  0  0  0  0  0
   -1.8190   58.3938   74.6819 H   0  0  0  0  0  0  0  0  0  0  0  0
   -1.2834   57.9573   73.0033 H   0  0  0  0  0  0  0  0  0  0  0  0
    0.3150   57.6757   75.5702 H   0  0  0  0  0  0  0  0  0  0  0  0
    1.0268   56.9590   72.6672 H   0  0  0  0  0  0  0  0  0  0  0  0
    3.1343   56.0808   73.4220 H   0  0  0  0  0  0  0  0  0  0  0  0
    2.7054   56.4888   75.1460 H   0  0  0  0  0  0  0  0  0  0  0  0
    1.3501   54.4234   73.3550 H   0  0  0  0  0  0  0  0  0  0  0  0
    2.3907   54.1248   74.8102 H   0  0  0  0  0  0  0  0  0  0  0  0
   -0.7659   55.7702   73.5798 H   0  0  0  0  0  0  0  0  0  0  0  0
   -1.7955   56.2867   76.3854 H   0  0  0  0  0  0  0  0  0  0  0  0
   -2.7189   56.0573   74.9029 H   0  0  0  0  0  0  0  0  0  0  0  0
   -2.0344   54.0267   76.8116 H   0  0  0  0  0  0  0  0  0  0  0  0
   -2.6914   53.7182   75.1883 H   0  0  0  0  0  0  0  0  0  0  0  0
   -0.7997   51.7789   74.2063 H   0  0  0  0  0  0  0  0  0  0  0  0
   -1.4682   53.2434   73.4095 H   0  0  0  0  0  0  0  0  0  0  0  0
    0.3041   52.9507   73.4095 H   0  0  0  0  0  0  0  0  0  0  0  0
    0.2393   54.7353   77.4271 H   0  0  0  0  0  0  0  0  0  0  0  0
    1.9287   54.9006   76.8397 H   0  0  0  0  0  0  0  0  0  0  0  0
    0.8344   56.3251   76.8397 H   0  0  0  0  0  0  0  0  0  0  0  0
   -0.2175   53.0482   77.1927 H   0  0  0  0  0  0  0  0  0  0  0  0
  2  1  1  0
  3  2  2  0
  4  3  1  0
  5  4  1  0
  5  6  1  1
  7  5  1  0
  8  7  1  0
  9  3  1  0
  9  8  1  0
 10  9  2  0
 11  7  1  0
 12 11  1  0
 13 12  1  0
 14 13  1  0
 14  5  1  0
 15 14  1  0
 16 15  1  0
 17 16  1  0
 18 17  1  0
 18 13  1  0
 19 18  1  0
 20 19  1  0
 21 20  1  0
 21 17  1  0
 22 21  1  0
 17 23  1  1
 21 24  1  1
  2 25  1  0
  4 26  1  0
  4 27  1  0
  6 28  1  0
  6 29  1  0
  6 30  1  0
  7 31  1  6
  8 32  1  0
  8 33  1  0
 11 34  1  0
 11 35  1  0
 12 36  1  0
 12 37  1  0
 13 38  1  1
 14 39  1  6
 15 40  1  0
 15 41  1  0
 16 42  1  0
 16 43  1  0
 18 44  1  6
 19 45  1  0
 19 46  1  0
 20 47  1  0
 20 48  1  0
 22 49  1  0
 22 50  1  0
 22 51  1  0
 23 52  1  0
 23 53  1  0
 23 54  1  0
 24 55  1  0
M  CHG  1   1  -1
M  END
>  <score>  (7) 
-7.593

$$$$
=
     RDKit          3D

 55 58  0  0  0  0  0  0  0  0999 V2000
    6.1340   60.8110   71.0340 O   0  0  0  0  0  1  0  0  0  0  0  0
    5.2430   61.5290   71.5560 C   0  0  0  0  0  0  0  0  0  0  0  0
    3.8950   61.4960   71.5220 C   0  0  0  0  0  0  0  0  0  0  0  0
    3.0140   62.3310   72.4150 C   0  0  0  0  0  0  0  0  0  0  0  0
    1.8100   61.5360   73.0410 C   0  0  1  0  0  0  0  0  0  0  0  0
    0.5560   61.7690   72.1570 C   0  0  0  0  0  0  0  0  0  0  0  0
    2.1900   60.0100   73.0870 C   0  0  2  0  0  0  0  0  0  0  0  0
    2.4580   59.4220   71.6860 C   0  0  0  0  0  0  0  0  0  0  0  0
    3.1630   60.4190   70.7920 C   0  0  0  0  0  0  0  0  0  0  0  0
    3.0190   60.4000   69.5710 O   0  0  0  0  0  0  0  0  0  0  0  0
    1.1560   59.1570   73.8320 C   0  0  0  0  0  0  0  0  0  0  0  0
    0.9240   59.6700   75.2490 C   0  0  0  0  0  0  0  0  0  0  0  0
    0.5090   61.1470   75.2660 C   0  0  2  0  0  0  0  0  0  0  0  0
    1.5530   62.0290   74.5140 C   0  0  2  0  0  0  0  0  0  0  0  0
    1.2190   63.5420   74.6270 C   0  0  0  0  0  0  0  0  0  0  0  0
    0.9810   63.9990   76.0770 C   0  0  0  0  0  0  0  0  0  0  0  0
   -0.0850   63.1400   76.7790 C   0  0  1  0  0  0  0  0  0  0  0  0
    0.3720   61.6670   76.7040 C   0  0  1  0  0  0  0  0  0  0  0  0
   -0.5840   60.9500   77.6520 C   0  0  0  0  0  0  0  0  0  0  0  0
   -0.8480   61.9650   78.7780 C   0  0  0  0  0  0  0  0  0  0  0  0
   -0.2320   63.3180   78.3220 C   0  0  1  0  0  0  0  0  0  0  0  0
    1.0720   63.6020   79.0780 C   0  0  0  0  0  0  0  0  0  0  0  0
   -1.4610   63.3970   76.0970 C   0  0  0  0  0  0  0  0  0  0  0  0
   -1.1290   64.3820   78.6360 O   0  0  0  0  0  0  0  0  0  0  0  0
    5.6453   62.3522   72.1647 H   0  0  0  0  0  0  0  0  0  0  0  0
    3.6297   62.7301   73.2345 H   0  0  0  0  0  0  0  0  0  0  0  0
    2.5824   63.1249   71.7878 H   0  0  0  0  0  0  0  0  0  0  0  0
   -0.3211   61.9320   72.8005 H   0  0  0  0  0  0  0  0  0  0  0  0
    0.7142   62.6531   71.5219 H   0  0  0  0  0  0  0  0  0  0  0  0
    0.3861   60.8871   71.5219 H   0  0  0  0  0  0  0  0  0  0  0  0
    3.1291   59.9687   73.6584 H   0  0  0  0  0  0  0  0  0  0  0  0
    3.0879   58.5261   71.7888 H   0  0  0  0  0  0  0  0  0  0  0  0
    1.4909   59.1699   71.2266 H   0  0  0  0  0  0  0  0  0  0  0  0
    0.2045   59.1868   73.2809 H   0  0  0  0  0  0  0  0  0  0  0  0
    1.5397   58.1281   73.8963 H   0  0  0  0  0  0  0  0  0  0  0  0
    0.1280   59.0723   75.7170 H   0  0  0  0  0  0  0  0  0  0  0  0
    1.8700   59.5770   75.8026 H   0  0  0  0  0  0  0  0  0  0  0  0
   -0.4645   61.2140   74.7583 H   0  0  0  0  0  0  0  0  0  0  0  0
    2.5191   61.9012   75.0242 H   0  0  0  0  0  0  0  0  0  0  0  0
    2.0587   64.1183   74.2113 H   0  0  0  0  0  0  0  0  0  0  0  0
    0.2862   63.7153   74.0703 H   0  0  0  0  0  0  0  0  0  0  0  0
    1.9258   63.9202   76.6348 H   0  0  0  0  0  0  0  0  0  0  0  0
    0.6215   65.0383   76.0533 H   0  0  0  0  0  0  0  0  0  0  0  0
    1.4056   61.4869   77.0346 H   0  0  0  0  0  0  0  0  0  0  0  0
   -1.5201   60.6900   77.1362 H   0  0  0  0  0  0  0  0  0  0  0  0
   -0.1657   60.0059   78.0310 H   0  0  0  0  0  0  0  0  0  0  0  0
   -1.9303   62.0776   78.9393 H   0  0  0  0  0  0  0  0  0  0  0  0
   -0.3997   61.6279   79.7242 H   0  0  0  0  0  0  0  0  0  0  0  0
    0.8843   63.5611   80.1611 H   0  0  0  0  0  0  0  0  0  0  0  0
    1.8246   62.8467   78.8075 H   0  0  0  0  0  0  0  0  0  0  0  0
    1.4423   64.6019   78.8075 H   0  0  0  0  0  0  0  0  0  0  0  0
   -2.2315   63.5409   76.8687 H   0  0  0  0  0  0  0  0  0  0  0  0
   -1.3969   64.2987   75.4702 H   0  0  0  0  0  0  0  0  0  0  0  0
   -1.7267   62.5329   75.4702 H   0  0  0  0  0  0  0  0  0  0  0  0
   -1.2041   64.4710   79.6191 H   0  0  0  0  0  0  0  0  0  0  0  0
  2  1  1  0
  3  2  2  0
  4  3  1  0
  5  4  1  0
  5  6  1  6
  7  5  1  0
  8  7  1  0
  9  3  1  0
  9  8  1  0
 10  9  2  0
 11  7  1  0
 12 11  1  0
 13 12  1  0
 14 13  1  0
 14  5  1  0
 15 14  1  0
 16 15  1  0
 17 16  1  0
 18 17  1  0
 18 13  1  0
 19 18  1  0
 20 19  1  0
 21 20  1  0
 21 17  1  0
 22 21  1  0
 17 23  1  6
 21 24  1  6
  2 25  1  0
  4 26  1  0
  4 27  1  0
  6 28  1  0
  6 29  1  0
  6 30  1  0
  7 31  1  1
  8 32  1  0
  8 33  1  0
 11 34  1  0
 11 35  1  0
 12 36  1  0
 12 37  1  0
 13 38  1  6
 14 39  1  1
 15 40  1  0
 15 41  1  0
 16 42  1  0
 16 43  1  0
 18 44  1  1
 19 45  1  0
 19 46  1  0
 20 47  1  0
 20 48  1  0
 22 49  1  0
 22 50  1  0
 22 51  1  0
 23 52  1  0
 23 53  1  0
 23 54  1  0
 24 55  1  0
M  CHG  1   1  -1
M  END
>  <score>  (8) 
-7.35

$$$$
=
     RDKit          3D

 55 58  0  0  0  0  0  0  0  0999 V2000
   -0.0700   63.9760   72.9220 O   0  0  0  0  0  1  0  0  0  0  0  0
   -0.1320   62.7310   72.7510 C   0  0  0  0  0  0  0  0  0  0  0  0
    0.7980   61.7900   72.4870 C   0  0  0  0  0  0  0  0  0  0  0  0
    0.5290   60.3090   72.5450 C   0  0  0  0  0  0  0  0  0  0  0  0
    1.6560   59.4880   73.2720 C   0  0  1  0  0  0  0  0  0  0  0  0
    2.6240   58.9260   72.1970 C   0  0  0  0  0  0  0  0  0  0  0  0
    2.4110   60.4470   74.2640 C   0  0  2  0  0  0  0  0  0  0  0  0
    3.0890   61.6320   73.5440 C   0  0  0  0  0  0  0  0  0  0  0  0
    2.2470   62.1360   72.3920 C   0  0  0  0  0  0  0  0  0  0  0  0
    2.7580   62.6660   71.4080 O   0  0  0  0  0  0  0  0  0  0  0  0
    3.4240   59.7150   75.1510 C   0  0  0  0  0  0  0  0  0  0  0  0
    2.7680   58.5830   75.9340 C   0  0  0  0  0  0  0  0  0  0  0  0
    2.0480   57.5880   75.0140 C   0  0  2  0  0  0  0  0  0  0  0  0
    1.0110   58.3180   74.1050 C   0  0  2  0  0  0  0  0  0  0  0  0
    0.1810   57.3170   73.2560 C   0  0  0  0  0  0  0  0  0  0  0  0
   -0.4460   56.1900   74.0970 C   0  0  0  0  0  0  0  0  0  0  0  0
    0.6080   55.4590   74.9470 C   0  0  1  0  0  0  0  0  0  0  0  0
    1.3160   56.5120   75.8280 C   0  0  1  0  0  0  0  0  0  0  0  0
    2.1200   55.6690   76.8130 C   0  0  0  0  0  0  0  0  0  0  0  0
    1.2430   54.4300   77.0670 C   0  0  0  0  0  0  0  0  0  0  0  0
    0.0780   54.4800   76.0410 C   0  0  1  0  0  0  0  0  0  0  0  0
   -1.2290   54.9020   76.7240 C   0  0  0  0  0  0  0  0  0  0  0  0
    1.5750   54.6950   73.9960 C   0  0  0  0  0  0  0  0  0  0  0  0
   -0.1440   53.1770   75.5030 O   0  0  0  0  0  0  0  0  0  0  0  0
   -1.1521   62.3277   72.8336 H   0  0  0  0  0  0  0  0  0  0  0  0
   -0.4178   60.1491   73.0817 H   0  0  0  0  0  0  0  0  0  0  0  0
    0.4896   59.9493   71.5062 H   0  0  0  0  0  0  0  0  0  0  0  0
    3.4740   58.4325   72.6910 H   0  0  0  0  0  0  0  0  0  0  0  0
    2.0911   58.1968   71.5690 H   0  0  0  0  0  0  0  0  0  0  0  0
    2.9930   59.7503   71.5690 H   0  0  0  0  0  0  0  0  0  0  0  0
    1.6261   60.8515   74.9200 H   0  0  0  0  0  0  0  0  0  0  0  0
    3.2365   62.4506   74.2639 H   0  0  0  0  0  0  0  0  0  0  0  0
    4.0526   61.2859   73.1418 H   0  0  0  0  0  0  0  0  0  0  0  0
    4.2182   59.2963   74.5155 H   0  0  0  0  0  0  0  0  0  0  0  0
    3.8371   60.4373   75.8705 H   0  0  0  0  0  0  0  0  0  0  0  0
    3.5441   58.0462   76.4992 H   0  0  0  0  0  0  0  0  0  0  0  0
    2.0191   59.0257   76.6072 H   0  0  0  0  0  0  0  0  0  0  0  0
    2.8174   57.1128   74.3877 H   0  0  0  0  0  0  0  0  0  0  0  0
    0.2861   58.8139   74.7673 H   0  0  0  0  0  0  0  0  0  0  0  0
   -0.6262   57.8694   72.7528 H   0  0  0  0  0  0  0  0  0  0  0  0
    0.8679   56.8474   72.5365 H   0  0  0  0  0  0  0  0  0  0  0  0
   -1.2043   56.6239   74.7654 H   0  0  0  0  0  0  0  0  0  0  0  0
   -0.8975   55.4600   73.4091 H   0  0  0  0  0  0  0  0  0  0  0  0
    0.6404   57.1724   76.3914 H   0  0  0  0  0  0  0  0  0  0  0  0
    3.0869   55.3779   76.3766 H   0  0  0  0  0  0  0  0  0  0  0  0
    2.3501   56.2151   77.7397 H   0  0  0  0  0  0  0  0  0  0  0  0
    1.8337   53.5132   76.9234 H   0  0  0  0  0  0  0  0  0  0  0  0
    0.8585   54.4259   78.0976 H   0  0  0  0  0  0  0  0  0  0  0  0
   -1.1020   54.8610   77.8159 H   0  0  0  0  0  0  0  0  0  0  0  0
   -1.4852   55.9285   76.4230 H   0  0  0  0  0  0  0  0  0  0  0  0
   -2.0371   54.2191   76.4230 H   0  0  0  0  0  0  0  0  0  0  0  0
    2.2999   54.1223   74.5931 H   0  0  0  0  0  0  0  0  0  0  0  0
    0.9974   54.0067   73.3615 H   0  0  0  0  0  0  0  0  0  0  0  0
    2.1110   55.4162   73.3615 H   0  0  0  0  0  0  0  0  0  0  0  0
   -0.2544   52.5288   76.2431 H   0  0  0  0  0  0  0  0  0  0  0  0
  2  1  1  0
  3  2  2  0
  4  3  1  0
  5  4  1  0
  5  6  1  6
  7  5  1  0
  8  7  1  0
  9  3  1  0
  9  8  1  0
 10  9  2  0
 11  7  1  0
 12 11  1  0
 13 12  1  0
 14 13  1  0
 14  5  1  0
 15 14  1  0
 16 15  1  0
 17 16  1  0
 18 17  1  0
 18 13  1  0
 19 18  1  0
 20 19  1  0
 21 20  1  0
 21 17  1  0
 22 21  1  0
 17 23  1  6
 21 24  1  6
  2 25  1  0
  4 26  1  0
  4 27  1  0
  6 28  1  0
  6 29  1  0
  6 30  1  0
  7 31  1  1
  8 32  1  0
  8 33  1  0
 11 34  1  0
 11 35  1  0
 12 36  1  0
 12 37  1  0
 13 38  1  6
 14 39  1  1
 15 40  1  0
 15 41  1  0
 16 42  1  0
 16 43  1  0
 18 44  1  1
 19 45  1  0
 19 46  1  0
 20 47  1  0
 20 48  1  0
 22 49  1  0
 22 50  1  0
 22 51  1  0
 23 52  1  0
 23 53  1  0
 23 54  1  0
 24 55  1  0
M  CHG  1   1  -1
M  END
>  <score>  (9) 
-7.141

$$$$
