=
     RDKit          3D

 16 17  0  0  0  0  0  0  0  0999 V2000
    4.0390   70.6460   69.8550 O   0  0  0  0  0  0  0  0  0  0  0  0
    4.7440   70.5510   68.8660 C   0  0  0  0  0  0  0  0  0  0  0  0
    6.4300   71.0440   68.8000 S   0  0  0  0  0  0  0  0  0  0  0  0
    6.6310   70.5570   67.0520 C   0  0  0  0  0  0  0  0  0  0  0  0
    5.3130   70.0160   66.6050 C   0  0  0  0  0  0  0  0  0  0  0  0
    4.3090   70.0130   67.5740 C   0  0  0  0  0  0  0  0  0  0  0  0
    3.0300   69.5400   67.3070 C   0  0  0  0  0  0  0  0  0  0  0  0
    2.7560   69.0550   66.0290 C   0  0  0  0  0  0  0  0  0  0  0  0
    3.7550   69.0520   65.0460 C   0  0  0  0  0  0  0  0  0  0  0  0
    5.0370   69.5320   65.3300 C   0  0  0  0  0  0  0  0  0  0  0  0
    6.9083   71.4308   66.4441 H   0  0  0  0  0  0  0  0  0  0  0  0
    7.4268   69.8061   66.9386 H   0  0  0  0  0  0  0  0  0  0  0  0
    2.2526   69.5480   68.0851 H   0  0  0  0  0  0  0  0  0  0  0  0
    1.7521   68.6733   65.7913 H   0  0  0  0  0  0  0  0  0  0  0  0
    3.5280   68.6680   64.0405 H   0  0  0  0  0  0  0  0  0  0  0  0
    5.8178   69.5271   64.5551 H   0  0  0  0  0  0  0  0  0  0  0  0
  2  1  2  0
  3  2  1  0
  4  3  1  0
  5  4  1  0
  6  5  2  0
  6  2  1  0
  7  6  1  0
  8  7  2  0
  9  8  1  0
 10  9  2  0
 10  5  1  0
  4 11  1  0
  4 12  1  0
  7 13  1  0
  8 14  1  0
  9 15  1  0
 10 16  1  0
M  END
>  <score>  (1) 
-7.287

$$$$
=
     RDKit          3D

 16 17  0  0  0  0  0  0  0  0999 V2000
    3.7480   68.8650   64.8870 O   0  0  0  0  0  0  0  0  0  0  0  0
    3.5700   69.2190   66.0390 C   0  0  0  0  0  0  0  0  0  0  0  0
    2.0400   69.0760   66.8940 S   0  0  0  0  0  0  0  0  0  0  0  0
    2.6920   69.8090   68.4340 C   0  0  0  0  0  0  0  0  0  0  0  0
    4.1270   70.1360   68.1770 C   0  0  0  0  0  0  0  0  0  0  0  0
    4.5920   69.8200   66.9000 C   0  0  0  0  0  0  0  0  0  0  0  0
    5.9040   70.0650   66.5130 C   0  0  0  0  0  0  0  0  0  0  0  0
    6.7710   70.6430   67.4390 C   0  0  0  0  0  0  0  0  0  0  0  0
    6.3170   70.9650   68.7260 C   0  0  0  0  0  0  0  0  0  0  0  0
    4.9940   70.7130   69.1000 C   0  0  0  0  0  0  0  0  0  0  0  0
    2.1337   70.7228   68.6854 H   0  0  0  0  0  0  0  0  0  0  0  0
    2.5891   69.1127   69.2793 H   0  0  0  0  0  0  0  0  0  0  0  0
    6.2499   69.8091   65.5007 H   0  0  0  0  0  0  0  0  0  0  0  0
    7.8150   70.8472   67.1591 H   0  0  0  0  0  0  0  0  0  0  0  0
    7.0094   71.4208   69.4490 H   0  0  0  0  0  0  0  0  0  0  0  0
    4.6427   70.9675   70.1109 H   0  0  0  0  0  0  0  0  0  0  0  0
  2  1  2  0
  3  2  1  0
  4  3  1  0
  5  4  1  0
  6  5  2  0
  6  2  1  0
  7  6  1  0
  8  7  2  0
  9  8  1  0
 10  9  2  0
 10  5  1  0
  4 11  1  0
  4 12  1  0
  7 13  1  0
  8 14  1  0
  9 15  1  0
 10 16  1  0
M  END
>  <score>  (2) 
-7.109

$$$$
=
     RDKit          3D

 16 17  0  0  0  0  0  0  0  0999 V2000
    1.8570   69.0190   66.7500 O   0  0  0  0  0  0  0  0  0  0  0  0
    2.9890   69.2250   66.3540 C   0  0  0  0  0  0  0  0  0  0  0  0
    3.5480   68.8720   64.7240 S   0  0  0  0  0  0  0  0  0  0  0  0
    5.2430   69.4700   65.0440 C   0  0  0  0  0  0  0  0  0  0  0  0
    5.2730   69.9280   66.4660 C   0  0  0  0  0  0  0  0  0  0  0  0
    4.0710   69.7970   67.1610 C   0  0  0  0  0  0  0  0  0  0  0  0
    3.9440   70.1800   68.4910 C   0  0  0  0  0  0  0  0  0  0  0  0
    5.0590   70.7120   69.1360 C   0  0  0  0  0  0  0  0  0  0  0  0
    6.2730   70.8490   68.4500 C   0  0  0  0  0  0  0  0  0  0  0  0
    6.3860   70.4580   67.1120 C   0  0  0  0  0  0  0  0  0  0  0  0
    5.9675   68.6564   64.8920 H   0  0  0  0  0  0  0  0  0  0  0  0
    5.5113   70.2873   64.3584 H   0  0  0  0  0  0  0  0  0  0  0  0
    2.9871   70.0660   69.0214 H   0  0  0  0  0  0  0  0  0  0  0  0
    4.9857   71.0256   70.1878 H   0  0  0  0  0  0  0  0  0  0  0  0
    7.1470   71.2688   68.9696 H   0  0  0  0  0  0  0  0  0  0  0  0
    7.3412   70.5678   66.5777 H   0  0  0  0  0  0  0  0  0  0  0  0
  2  1  2  0
  3  2  1  0
  4  3  1  0
  5  4  1  0
  6  5  2  0
  6  2  1  0
  7  6  1  0
  8  7  2  0
  9  8  1  0
 10  9  2  0
 10  5  1  0
  4 11  1  0
  4 12  1  0
  7 13  1  0
  8 14  1  0
  9 15  1  0
 10 16  1  0
M  END
>  <score>  (3) 
-7.084

$$$$
=
     RDKit          3D

 16 17  0  0  0  0  0  0  0  0999 V2000
    5.9470   69.3610   62.8070 O   0  0  0  0  0  0  0  0  0  0  0  0
    4.8580   69.1360   63.3030 C   0  0  0  0  0  0  0  0  0  0  0  0
    3.4710   68.5250   62.4120 S   0  0  0  0  0  0  0  0  0  0  0  0
    2.3820   68.5070   63.8780 C   0  0  0  0  0  0  0  0  0  0  0  0
    3.2020   69.0020   65.0240 C   0  0  0  0  0  0  0  0  0  0  0  0
    4.5210   69.3350   64.7150 C   0  0  0  0  0  0  0  0  0  0  0  0
    5.4050   69.8100   65.6770 C   0  0  0  0  0  0  0  0  0  0  0  0
    4.9470   69.9500   66.9860 C   0  0  0  0  0  0  0  0  0  0  0  0
    3.6240   69.6180   67.3110 C   0  0  0  0  0  0  0  0  0  0  0  0
    2.7460   69.1430   66.3310 C   0  0  0  0  0  0  0  0  0  0  0  0
    1.5172   69.1674   63.7167 H   0  0  0  0  0  0  0  0  0  0  0  0
    1.9962   67.4956   64.0735 H   0  0  0  0  0  0  0  0  0  0  0  0
    6.4406   70.0690   65.4117 H   0  0  0  0  0  0  0  0  0  0  0  0
    5.6261   70.3224   67.7671 H   0  0  0  0  0  0  0  0  0  0  0  0
    3.2729   69.7322   68.3472 H   0  0  0  0  0  0  0  0  0  0  0  0
    1.7087   68.8844   66.5902 H   0  0  0  0  0  0  0  0  0  0  0  0
  2  1  2  0
  3  2  1  0
  4  3  1  0
  5  4  1  0
  6  5  2  0
  6  2  1  0
  7  6  1  0
  8  7  2  0
  9  8  1  0
 10  9  2  0
 10  5  1  0
  4 11  1  0
  4 12  1  0
  7 13  1  0
  8 14  1  0
  9 15  1  0
 10 16  1  0
M  END
>  <score>  (4) 
-6.726

$$$$
=
     RDKit          3D

 16 17  0  0  0  0  0  0  0  0999 V2000
    1.6480   68.2140   63.2250 O   0  0  0  0  0  0  0  0  0  0  0  0
    2.7960   68.5840   63.3920 C   0  0  0  0  0  0  0  0  0  0  0  0
    4.0020   68.6800   62.1170 S   0  0  0  0  0  0  0  0  0  0  0  0
    5.3130   69.2880   63.2330 C   0  0  0  0  0  0  0  0  0  0  0  0
    4.7040   69.3820   64.5940 C   0  0  0  0  0  0  0  0  0  0  0  0
    3.3630   69.0080   64.6760 C   0  0  0  0  0  0  0  0  0  0  0  0
    2.6600   69.0420   65.8750 C   0  0  0  0  0  0  0  0  0  0  0  0
    3.3290   69.4690   67.0220 C   0  0  0  0  0  0  0  0  0  0  0  0
    4.6760   69.8480   66.9540 C   0  0  0  0  0  0  0  0  0  0  0  0
    5.3690   69.8070   65.7400 C   0  0  0  0  0  0  0  0  0  0  0  0
    6.1590   68.5851   63.2433 H   0  0  0  0  0  0  0  0  0  0  0  0
    5.6959   70.2643   62.9010 H   0  0  0  0  0  0  0  0  0  0  0  0
    1.6032   68.7399   65.9180 H   0  0  0  0  0  0  0  0  0  0  0  0
    2.7968   69.5083   67.9839 H   0  0  0  0  0  0  0  0  0  0  0  0
    5.1941   70.1814   67.8653 H   0  0  0  0  0  0  0  0  0  0  0  0
    6.4262   70.1069   65.6917 H   0  0  0  0  0  0  0  0  0  0  0  0
  2  1  2  0
  3  2  1  0
  4  3  1  0
  5  4  1  0
  6  5  2  0
  6  2  1  0
  7  6  1  0
  8  7  2  0
  9  8  1  0
 10  9  2  0
 10  5  1  0
  4 11  1  0
  4 12  1  0
  7 13  1  0
  8 14  1  0
  9 15  1  0
 10 16  1  0
M  END
>  <score>  (5) 
-6.721

$$$$
=
     RDKit          3D

 16 17  0  0  0  0  0  0  0  0999 V2000
    0.6210   68.0440   64.7620 O   0  0  0  0  0  0  0  0  0  0  0  0
    1.2430   68.4800   65.7140 C   0  0  0  0  0  0  0  0  0  0  0  0
    0.5810   68.6540   67.3340 S   0  0  0  0  0  0  0  0  0  0  0  0
    2.1290   69.3350   68.0250 C   0  0  0  0  0  0  0  0  0  0  0  0
    3.1110   69.3890   66.9010 C   0  0  0  0  0  0  0  0  0  0  0  0
    2.6360   68.9320   65.6710 C   0  0  0  0  0  0  0  0  0  0  0  0
    3.4340   68.9210   64.5330 C   0  0  0  0  0  0  0  0  0  0  0  0
    4.7460   69.3810   64.6380 C   0  0  0  0  0  0  0  0  0  0  0  0
    5.2350   69.8420   65.8680 C   0  0  0  0  0  0  0  0  0  0  0  0
    4.4200   69.8480   67.0040 C   0  0  0  0  0  0  0  0  0  0  0  0
    1.9541   70.3447   68.4250 H   0  0  0  0  0  0  0  0  0  0  0  0
    2.5038   68.7105   68.8493 H   0  0  0  0  0  0  0  0  0  0  0  0
    3.0398   68.5580   63.5724 H   0  0  0  0  0  0  0  0  0  0  0  0
    5.3992   69.3821   63.7530 H   0  0  0  0  0  0  0  0  0  0  0  0
    6.2715   70.2031   65.9403 H   0  0  0  0  0  0  0  0  0  0  0  0
    4.8089   70.2110   67.9668 H   0  0  0  0  0  0  0  0  0  0  0  0
  2  1  2  0
  3  2  1  0
  4  3  1  0
  5  4  1  0
  6  5  2  0
  6  2  1  0
  7  6  1  0
  8  7  2  0
  9  8  1  0
 10  9  2  0
 10  5  1  0
  4 11  1  0
  4 12  1  0
  7 13  1  0
  8 14  1  0
  9 15  1  0
 10 16  1  0
M  END
>  <score>  (6) 
-6.625

$$$$
=
     RDKit          3D

 16 17  0  0  0  0  0  0  0  0999 V2000
    0.5350   68.4420   66.2590 O   0  0  0  0  0  0  0  0  0  0  0  0
    1.6410   68.6390   65.7890 C   0  0  0  0  0  0  0  0  0  0  0  0
    2.0930   68.2670   64.1320 S   0  0  0  0  0  0  0  0  0  0  0  0
    3.8080   68.8590   64.3370 C   0  0  0  0  0  0  0  0  0  0  0  0
    3.9300   69.3310   65.7500 C   0  0  0  0  0  0  0  0  0  0  0  0
    2.7740   69.2130   66.5210 C   0  0  0  0  0  0  0  0  0  0  0  0
    2.7330   69.6100   67.8520 C   0  0  0  0  0  0  0  0  0  0  0  0
    3.8900   70.1420   68.4200 C   0  0  0  0  0  0  0  0  0  0  0  0
    5.0590   70.2660   67.6570 C   0  0  0  0  0  0  0  0  0  0  0  0
    5.0840   69.8610   66.3190 C   0  0  0  0  0  0  0  0  0  0  0  0
    4.5175   68.0400   64.1477 H   0  0  0  0  0  0  0  0  0  0  0  0
    4.0364   69.6677   63.6272 H   0  0  0  0  0  0  0  0  0  0  0  0
    1.8108   69.5072   68.4428 H   0  0  0  0  0  0  0  0  0  0  0  0
    3.8852   70.4657   69.4713 H   0  0  0  0  0  0  0  0  0  0  0  0
    5.9662   70.6863   68.1155 H   0  0  0  0  0  0  0  0  0  0  0  0
    6.0038   69.9600   65.7239 H   0  0  0  0  0  0  0  0  0  0  0  0
  2  1  2  0
  3  2  1  0
  4  3  1  0
  5  4  1  0
  6  5  2  0
  6  2  1  0
  7  6  1  0
  8  7  2  0
  9  8  1  0
 10  9  2  0
 10  5  1  0
  4 11  1  0
  4 12  1  0
  7 13  1  0
  8 14  1  0
  9 15  1  0
 10 16  1  0
M  END
>  <score>  (7) 
-6.502

$$$$
=
     RDKit          3D

 16 17  0  0  0  0  0  0  0  0999 V2000
    0.2390   68.0460   63.6860 O   0  0  0  0  0  0  0  0  0  0  0  0
    0.7880   68.3570   64.7280 C   0  0  0  0  0  0  0  0  0  0  0  0
   -0.0090   68.3920   66.2950 S   0  0  0  0  0  0  0  0  0  0  0  0
    1.4920   68.9340   67.1820 C   0  0  0  0  0  0  0  0  0  0  0  0
    2.5720   69.0610   66.1570 C   0  0  0  0  0  0  0  0  0  0  0  0
    2.1930   68.7530   64.8510 C   0  0  0  0  0  0  0  0  0  0  0  0
    3.0880   68.8250   63.7890 C   0  0  0  0  0  0  0  0  0  0  0  0
    4.3990   69.2170   64.0530 C   0  0  0  0  0  0  0  0  0  0  0  0
    4.7930   69.5290   65.3620 C   0  0  0  0  0  0  0  0  0  0  0  0
    3.8810   69.4530   66.4190 C   0  0  0  0  0  0  0  0  0  0  0  0
    1.3153   69.9043   67.6692 H   0  0  0  0  0  0  0  0  0  0  0  0
    1.7714   68.2139   67.9651 H   0  0  0  0  0  0  0  0  0  0  0  0
    2.7689   68.5785   62.7656 H   0  0  0  0  0  0  0  0  0  0  0  0
    5.1275   69.2819   63.2314 H   0  0  0  0  0  0  0  0  0  0  0  0
    5.8305   69.8368   65.5594 H   0  0  0  0  0  0  0  0  0  0  0  0
    4.1942   69.6999   67.4442 H   0  0  0  0  0  0  0  0  0  0  0  0
  2  1  2  0
  3  2  1  0
  4  3  1  0
  5  4  1  0
  6  5  2  0
  6  2  1  0
  7  6  1  0
  8  7  2  0
  9  8  1  0
 10  9  2  0
 10  5  1  0
  4 11  1  0
  4 12  1  0
  7 13  1  0
  8 14  1  0
  9 15  1  0
 10 16  1  0
M  END
>  <score>  (8) 
-6.412

$$$$
=
     RDKit          3D

 16 17  0  0  0  0  0  0  0  0999 V2000
    2.2410   69.2550   67.6910 O   0  0  0  0  0  0  0  0  0  0  0  0
    2.0770   68.9910   66.5140 C   0  0  0  0  0  0  0  0  0  0  0  0
    0.5630   68.4180   65.8280 S   0  0  0  0  0  0  0  0  0  0  0  0
    1.2320   68.3040   64.1330 C   0  0  0  0  0  0  0  0  0  0  0  0
    2.6600   68.7380   64.2070 C   0  0  0  0  0  0  0  0  0  0  0  0
    3.1070   69.1040   65.4770 C   0  0  0  0  0  0  0  0  0  0  0  0
    4.4110   69.5290   65.7040 C   0  0  0  0  0  0  0  0  0  0  0  0
    5.2860   69.5890   64.6200 C   0  0  0  0  0  0  0  0  0  0  0  0
    4.8500   69.2240   63.3390 C   0  0  0  0  0  0  0  0  0  0  0  0
    3.5350   68.7970   63.1270 C   0  0  0  0  0  0  0  0  0  0  0  0
    1.1687   67.2679   63.7690 H   0  0  0  0  0  0  0  0  0  0  0  0
    0.6608   68.9369   63.4379 H   0  0  0  0  0  0  0  0  0  0  0  0
    4.7443   69.8109   66.7137 H   0  0  0  0  0  0  0  0  0  0  0  0
    6.3228   69.9242   64.7709 H   0  0  0  0  0  0  0  0  0  0  0  0
    5.5493   69.2739   62.4914 H   0  0  0  0  0  0  0  0  0  0  0  0
    3.1972   68.5117   62.1198 H   0  0  0  0  0  0  0  0  0  0  0  0
  2  1  2  0
  3  2  1  0
  4  3  1  0
  5  4  1  0
  6  5  2  0
  6  2  1  0
  7  6  1  0
  8  7  2  0
  9  8  1  0
 10  9  2  0
 10  5  1  0
  4 11  1  0
  4 12  1  0
  7 13  1  0
  8 14  1  0
  9 15  1  0
 10 16  1  0
M  END
>  <score>  (9) 
-6.134

$$$$
