=
     RDKit          3D

 36 38  0  0  0  0  0  0  0  0999 V2000
    2.0310   69.0610   66.4270 N   0  0  0  0  0  0  0  0  0  0  0  0
    3.2050   69.1080   65.5510 C   0  0  0  0  0  0  0  0  0  0  0  0
    3.1330   68.7600   64.2210 C   0  0  0  0  0  0  0  0  0  0  0  0
    4.4120   69.0010   63.7150 C   0  0  0  0  0  0  0  0  0  0  0  0
    5.2470   69.4710   64.6360 N   0  0  0  0  0  0  0  0  0  0  0  0
    4.5130   69.5370   65.7880 N   0  0  0  0  0  0  0  0  0  0  0  0
    5.1400   69.9930   66.9900 C   0  0  0  0  0  0  0  0  0  0  0  0
    4.4310   70.2240   68.1730 C   0  0  0  0  0  0  0  0  0  0  0  0
    5.0970   70.6690   69.3220 C   0  0  0  0  0  0  0  0  0  0  0  0
    6.4710   70.8890   69.3010 C   0  0  0  0  0  0  0  0  0  0  0  0
    7.1890   70.6560   68.1340 C   0  0  0  0  0  0  0  0  0  0  0  0
    6.5310   70.2090   66.9860 C   0  0  0  0  0  0  0  0  0  0  0  0
    1.3290   67.5580   66.7460 S   0  0  0  0  0  6  0  0  0  0  0  0
    1.5670   67.2120   68.1310 O   0  0  0  0  0  0  0  0  0  0  0  0
    1.7570   66.6910   65.6690 O   0  0  0  0  0  0  0  0  0  0  0  0
   -3.1560   68.2950   66.1900 C   0  0  0  0  0  0  0  0  0  0  0  0
   -2.6970   67.4230   67.1820 C   0  0  0  0  0  0  0  0  0  0  0  0
   -1.3310   67.1870   67.3520 C   0  0  0  0  0  0  0  0  0  0  0  0
   -0.4120   67.8500   66.5350 C   0  0  0  0  0  0  0  0  0  0  0  0
   -0.8500   68.7920   65.6020 C   0  0  0  0  0  0  0  0  0  0  0  0
   -2.2200   69.0160   65.4420 C   0  0  0  0  0  0  0  0  0  0  0  0
   -4.5160   68.6090   66.1040 N   0  0  0  0  0  0  0  0  0  0  0  0
    1.6438   69.9225   66.8377 H   0  0  0  0  0  0  0  0  0  0  0  0
    2.2584   68.3758   63.6756 H   0  0  0  0  0  0  0  0  0  0  0  0
    4.6974   68.8214   62.6680 H   0  0  0  0  0  0  0  0  0  0  0  0
    3.3444   70.0553   68.2013 H   0  0  0  0  0  0  0  0  0  0  0  0
    4.5298   70.8459   70.2478 H   0  0  0  0  0  0  0  0  0  0  0  0
    6.9868   71.2460   70.2046 H   0  0  0  0  0  0  0  0  0  0  0  0
    8.2760   70.8237   68.1145 H   0  0  0  0  0  0  0  0  0  0  0  0
    7.1069   70.0234   66.0673 H   0  0  0  0  0  0  0  0  0  0  0  0
   -3.4211   66.9164   67.8369 H   0  0  0  0  0  0  0  0  0  0  0  0
   -0.9815   66.4847   68.1231 H   0  0  0  0  0  0  0  0  0  0  0  0
   -0.1223   69.3534   64.9976 H   0  0  0  0  0  0  0  0  0  0  0  0
   -2.5665   69.7688   64.7187 H   0  0  0  0  0  0  0  0  0  0  0  0
   -4.8509   69.2517   65.3721 H   0  0  0  0  0  0  0  0  0  0  0  0
   -5.1828   68.1976   66.7726 H   0  0  0  0  0  0  0  0  0  0  0  0
  2  1  1  0
  3  2  2  0
  4  3  1  0
  5  4  2  0
  6  5  1  0
  6  2  1  0
  7  6  1  0
  8  7  2  0
  9  8  1  0
 10  9  2  0
 11 10  1  0
 12  7  1  0
 12 11  2  0
 13  1  1  0
 14 13  2  0
 15 13  2  0
 17 16  2  0
 18 17  1  0
 19 18  2  0
 19 13  1  0
 20 19  1  0
 21 20  2  0
 21 16  1  0
 22 16  1  0
  1 23  1  0
  3 24  1  0
  4 25  1  0
  8 26  1  0
  9 27  1  0
 10 28  1  0
 11 29  1  0
 12 30  1  0
 17 31  1  0
 18 32  1  0
 20 33  1  0
 21 34  1  0
 22 35  1  0
 22 36  1  0
M  END
>  <score>  (1) 
-10.594

$$$$
=
     RDKit          3D

 36 38  0  0  0  0  0  0  0  0999 V2000
    2.0200   69.4770   67.1300 N   0  0  0  0  0  0  0  0  0  0  0  0
    3.4530   69.6080   66.8470 C   0  0  0  0  0  0  0  0  0  0  0  0
    4.3630   69.9070   67.8350 C   0  0  0  0  0  0  0  0  0  0  0  0
    5.6070   69.8740   67.2010 C   0  0  0  0  0  0  0  0  0  0  0  0
    5.5150   69.5750   65.9090 N   0  0  0  0  0  0  0  0  0  0  0  0
    4.1780   69.4130   65.6710 N   0  0  0  0  0  0  0  0  0  0  0  0
    3.7390   69.1000   64.3460 C   0  0  0  0  0  0  0  0  0  0  0  0
    2.3910   68.9160   64.0190 C   0  0  0  0  0  0  0  0  0  0  0  0
    2.0170   68.6110   62.7040 C   0  0  0  0  0  0  0  0  0  0  0  0
    2.9800   68.4870   61.7070 C   0  0  0  0  0  0  0  0  0  0  0  0
    4.3220   68.6740   62.0160 C   0  0  0  0  0  0  0  0  0  0  0  0
    4.7000   68.9810   63.3250 C   0  0  0  0  0  0  0  0  0  0  0  0
    1.4090   67.9430   67.4850 S   0  0  0  0  0  6  0  0  0  0  0  0
    1.4930   67.7220   68.9130 O   0  0  0  0  0  0  0  0  0  0  0  0
    2.0440   67.0440   66.5440 O   0  0  0  0  0  0  0  0  0  0  0  0
   -3.0150   68.2500   66.3460 C   0  0  0  0  0  0  0  0  0  0  0  0
   -2.0570   69.0250   65.6860 C   0  0  0  0  0  0  0  0  0  0  0  0
   -0.7070   68.9420   66.0340 C   0  0  0  0  0  0  0  0  0  0  0  0
   -0.3080   68.0560   67.0370 C   0  0  0  0  0  0  0  0  0  0  0  0
   -1.2410   67.2110   67.6410 C   0  0  0  0  0  0  0  0  0  0  0  0
   -2.5880   67.3050   67.2850 C   0  0  0  0  0  0  0  0  0  0  0  0
   -4.3460   68.2580   65.9140 N   0  0  0  0  0  0  0  0  0  0  0  0
    1.4013   70.3003   67.1127 H   0  0  0  0  0  0  0  0  0  0  0  0
    4.1558   70.1245   68.8932 H   0  0  0  0  0  0  0  0  0  0  0  0
    6.5590   70.0736   67.7147 H   0  0  0  0  0  0  0  0  0  0  0  0
    1.6209   69.0114   64.7987 H   0  0  0  0  0  0  0  0  0  0  0  0
    0.9545   68.4685   62.4576 H   0  0  0  0  0  0  0  0  0  0  0  0
    2.6799   68.2417   60.6775 H   0  0  0  0  0  0  0  0  0  0  0  0
    5.0860   68.5803   61.2301 H   0  0  0  0  0  0  0  0  0  0  0  0
    5.7637   69.1319   63.5611 H   0  0  0  0  0  0  0  0  0  0  0  0
   -2.3702   69.7084   64.8829 H   0  0  0  0  0  0  0  0  0  0  0  0
    0.0367   69.5700   65.5217 H   0  0  0  0  0  0  0  0  0  0  0  0
   -0.9171   66.4759   68.3925 H   0  0  0  0  0  0  0  0  0  0  0  0
   -3.3214   66.6285   67.7480 H   0  0  0  0  0  0  0  0  0  0  0  0
   -5.0495   67.6858   66.4025 H   0  0  0  0  0  0  0  0  0  0  0  0
   -4.6222   68.8361   65.1075 H   0  0  0  0  0  0  0  0  0  0  0  0
  2  1  1  0
  3  2  2  0
  4  3  1  0
  5  4  2  0
  6  5  1  0
  6  2  1  0
  7  6  1  0
  8  7  2  0
  9  8  1  0
 10  9  2  0
 11 10  1  0
 12  7  1  0
 12 11  2  0
 13  1  1  0
 14 13  2  0
 15 13  2  0
 17 16  2  0
 18 17  1  0
 19 18  2  0
 19 13  1  0
 20 19  1  0
 21 20  2  0
 21 16  1  0
 22 16  1  0
  1 23  1  0
  3 24  1  0
  4 25  1  0
  8 26  1  0
  9 27  1  0
 10 28  1  0
 11 29  1  0
 12 30  1  0
 17 31  1  0
 18 32  1  0
 20 33  1  0
 21 34  1  0
 22 35  1  0
 22 36  1  0
M  END
>  <score>  (2) 
-10.147

$$$$
=
     RDKit          3D

 36 38  0  0  0  0  0  0  0  0999 V2000
   -0.3350   63.2370   71.7720 N   0  0  0  0  0  0  0  0  0  0  0  0
    0.3960   64.2670   71.0270 C   0  0  0  0  0  0  0  0  0  0  0  0
   -0.1130   65.5330   70.8490 C   0  0  0  0  0  0  0  0  0  0  0  0
    0.8860   66.2310   70.1660 C   0  0  0  0  0  0  0  0  0  0  0  0
    1.9580   65.4830   69.9230 N   0  0  0  0  0  0  0  0  0  0  0  0
    1.6660   64.2540   70.4460 N   0  0  0  0  0  0  0  0  0  0  0  0
    2.6260   63.2000   70.3280 C   0  0  0  0  0  0  0  0  0  0  0  0
    2.3320   61.9740   69.7220 C   0  0  0  0  0  0  0  0  0  0  0  0
    3.3110   60.9760   69.6330 C   0  0  0  0  0  0  0  0  0  0  0  0
    4.5870   61.1910   70.1450 C   0  0  0  0  0  0  0  0  0  0  0  0
    4.8950   62.4080   70.7420 C   0  0  0  0  0  0  0  0  0  0  0  0
    3.9230   63.4070   70.8310 C   0  0  0  0  0  0  0  0  0  0  0  0
    0.0810   62.9690   73.3870 S   0  0  0  0  0  6  0  0  0  0  0  0
   -1.0910   62.5120   74.1040 O   0  0  0  0  0  0  0  0  0  0  0  0
    0.8080   64.1490   73.8040 O   0  0  0  0  0  0  0  0  0  0  0  0
    3.0690   59.5050   73.2010 C   0  0  0  0  0  0  0  0  0  0  0  0
    1.7920   59.3700   72.6500 C   0  0  0  0  0  0  0  0  0  0  0  0
    0.8720   60.4200   72.7100 C   0  0  0  0  0  0  0  0  0  0  0  0
    1.2440   61.6260   73.3080 C   0  0  0  0  0  0  0  0  0  0  0  0
    2.5450   61.8060   73.7810 C   0  0  0  0  0  0  0  0  0  0  0  0
    3.4540   60.7470   73.7150 C   0  0  0  0  0  0  0  0  0  0  0  0
    4.0170   58.4890   73.0350 N   0  0  0  0  0  0  0  0  0  0  0  0
   -1.0832   62.6907   71.3219 H   0  0  0  0  0  0  0  0  0  0  0  0
   -1.0930   65.9127   71.1737 H   0  0  0  0  0  0  0  0  0  0  0  0
    0.7956   67.2844   69.8624 H   0  0  0  0  0  0  0  0  0  0  0  0
    1.3270   61.7927   69.3133 H   0  0  0  0  0  0  0  0  0  0  0  0
    3.0693   60.0153   69.1549 H   0  0  0  0  0  0  0  0  0  0  0  0
    5.3492   60.4007   70.0775 H   0  0  0  0  0  0  0  0  0  0  0  0
    5.9036   62.5841   71.1441 H   0  0  0  0  0  0  0  0  0  0  0  0
    4.1754   64.3690   71.3010 H   0  0  0  0  0  0  0  0  0  0  0  0
    1.5075   58.4256   72.1630 H   0  0  0  0  0  0  0  0  0  0  0  0
   -0.1371   60.2977   72.2896 H   0  0  0  0  0  0  0  0  0  0  0  0
    2.8522   62.7744   74.2026 H   0  0  0  0  0  0  0  0  0  0  0  0
    4.4845   60.8920   74.0715 H   0  0  0  0  0  0  0  0  0  0  0  0
    4.9576   58.5908   73.4421 H   0  0  0  0  0  0  0  0  0  0  0  0
    3.7741   57.6394   72.5057 H   0  0  0  0  0  0  0  0  0  0  0  0
  2  1  1  0
  3  2  2  0
  4  3  1  0
  5  4  2  0
  6  5  1  0
  6  2  1  0
  7  6  1  0
  8  7  2  0
  9  8  1  0
 10  9  2  0
 11 10  1  0
 12  7  1  0
 12 11  2  0
 13  1  1  0
 14 13  2  0
 15 13  2  0
 17 16  2  0
 18 17  1  0
 19 18  2  0
 19 13  1  0
 20 19  1  0
 21 20  2  0
 21 16  1  0
 22 16  1  0
  1 23  1  0
  3 24  1  0
  4 25  1  0
  8 26  1  0
  9 27  1  0
 10 28  1  0
 11 29  1  0
 12 30  1  0
 17 31  1  0
 18 32  1  0
 20 33  1  0
 21 34  1  0
 22 35  1  0
 22 36  1  0
M  END
>  <score>  (3) 
-9.216

$$$$
=
     RDKit          3D

 36 38  0  0  0  0  0  0  0  0999 V2000
    1.2660   66.2780   69.5250 N   0  0  0  0  0  0  0  0  0  0  0  0
    0.4290   67.0060   68.5660 C   0  0  0  0  0  0  0  0  0  0  0  0
   -0.9210   66.7650   68.4520 C   0  0  0  0  0  0  0  0  0  0  0  0
   -1.3730   67.6860   67.5040 C   0  0  0  0  0  0  0  0  0  0  0  0
   -0.3990   68.4640   67.0420 N   0  0  0  0  0  0  0  0  0  0  0  0
    0.7320   68.0480   67.6880 N   0  0  0  0  0  0  0  0  0  0  0  0
    1.9790   68.6830   67.3910 C   0  0  0  0  0  0  0  0  0  0  0  0
    2.6590   69.4840   68.3140 C   0  0  0  0  0  0  0  0  0  0  0  0
    3.8780   70.0820   67.9690 C   0  0  0  0  0  0  0  0  0  0  0  0
    4.4280   69.8880   66.7050 C   0  0  0  0  0  0  0  0  0  0  0  0
    3.7650   69.0880   65.7810 C   0  0  0  0  0  0  0  0  0  0  0  0
    2.5510   68.4880   66.1200 C   0  0  0  0  0  0  0  0  0  0  0  0
    0.5500   65.0610   70.4530 S   0  0  0  0  0  6  0  0  0  0  0  0
   -0.3350   64.2870   69.6090 O   0  0  0  0  0  0  0  0  0  0  0  0
    0.0690   65.7160   71.6510 O   0  0  0  0  0  0  0  0  0  0  0  0
    4.0660   62.3840   71.6530 C   0  0  0  0  0  0  0  0  0  0  0  0
    4.2010   63.3100   70.6130 C   0  0  0  0  0  0  0  0  0  0  0  0
    3.1300   64.1240   70.2370 C   0  0  0  0  0  0  0  0  0  0  0  0
    1.9180   64.0270   70.9240 C   0  0  0  0  0  0  0  0  0  0  0  0
    1.7970   63.1730   72.0220 C   0  0  0  0  0  0  0  0  0  0  0  0
    2.8760   62.3640   72.3870 C   0  0  0  0  0  0  0  0  0  0  0  0
    5.1760   61.6570   72.0950 N   0  0  0  0  0  0  0  0  0  0  0  0
    2.2656   66.5029   69.6303 H   0  0  0  0  0  0  0  0  0  0  0  0
   -1.5148   66.0114   68.9901 H   0  0  0  0  0  0  0  0  0  0  0  0
   -2.4203   67.7595   67.1757 H   0  0  0  0  0  0  0  0  0  0  0  0
    2.2345   69.6453   69.3159 H   0  0  0  0  0  0  0  0  0  0  0  0
    4.4047   70.7098   68.7027 H   0  0  0  0  0  0  0  0  0  0  0  0
    5.3825   70.3653   66.4385 H   0  0  0  0  0  0  0  0  0  0  0  0
    4.1974   68.9278   64.7823 H   0  0  0  0  0  0  0  0  0  0  0  0
    2.0346   67.8544   65.3839 H   0  0  0  0  0  0  0  0  0  0  0  0
    5.1620   63.3981   70.0851 H   0  0  0  0  0  0  0  0  0  0  0  0
    3.2404   64.8362   69.4059 H   0  0  0  0  0  0  0  0  0  0  0  0
    0.8590   63.1374   72.5955 H   0  0  0  0  0  0  0  0  0  0  0  0
    2.7884   61.7034   73.2622 H   0  0  0  0  0  0  0  0  0  0  0  0
    5.0738   60.9759   72.8609 H   0  0  0  0  0  0  0  0  0  0  0  0
    6.0957   61.8027   71.6547 H   0  0  0  0  0  0  0  0  0  0  0  0
  2  1  1  0
  3  2  2  0
  4  3  1  0
  5  4  2  0
  6  5  1  0
  6  2  1  0
  7  6  1  0
  8  7  2  0
  9  8  1  0
 10  9  2  0
 11 10  1  0
 12  7  1  0
 12 11  2  0
 13  1  1  0
 14 13  2  0
 15 13  2  0
 17 16  2  0
 18 17  1  0
 19 18  2  0
 19 13  1  0
 20 19  1  0
 21 20  2  0
 21 16  1  0
 22 16  1  0
  1 23  1  0
  3 24  1  0
  4 25  1  0
  8 26  1  0
  9 27  1  0
 10 28  1  0
 11 29  1  0
 12 30  1  0
 17 31  1  0
 18 32  1  0
 20 33  1  0
 21 34  1  0
 22 35  1  0
 22 36  1  0
M  END
>  <score>  (4) 
-9.206

$$$$
=
     RDKit          3D

 36 38  0  0  0  0  0  0  0  0999 V2000
    1.6630   62.8950   69.8690 N   0  0  0  0  0  0  0  0  0  0  0  0
    0.9860   63.8380   70.7660 C   0  0  0  0  0  0  0  0  0  0  0  0
    0.7100   65.1310   70.3850 C   0  0  0  0  0  0  0  0  0  0  0  0
    0.0100   65.6820   71.4600 C   0  0  0  0  0  0  0  0  0  0  0  0
   -0.1600   64.8180   72.4570 N   0  0  0  0  0  0  0  0  0  0  0  0
    0.4490   63.6660   72.0430 N   0  0  0  0  0  0  0  0  0  0  0  0
    0.4600   62.5320   72.9140 C   0  0  0  0  0  0  0  0  0  0  0  0
   -0.3630   61.4180   72.7170 C   0  0  0  0  0  0  0  0  0  0  0  0
   -0.3110   60.3340   73.6020 C   0  0  0  0  0  0  0  0  0  0  0  0
    0.5600   60.3500   74.6880 C   0  0  0  0  0  0  0  0  0  0  0  0
    1.3890   61.4470   74.8910 C   0  0  0  0  0  0  0  0  0  0  0  0
    1.3430   62.5300   74.0100 C   0  0  0  0  0  0  0  0  0  0  0  0
    3.3380   62.7240   70.0020 S   0  0  0  0  0  6  0  0  0  0  0  0
    3.8910   63.9340   70.5730 O   0  0  0  0  0  0  0  0  0  0  0  0
    3.7820   62.2250   68.7170 O   0  0  0  0  0  0  0  0  0  0  0  0
    3.8690   59.3300   73.0290 C   0  0  0  0  0  0  0  0  0  0  0  0
    4.5880   60.5220   73.1660 C   0  0  0  0  0  0  0  0  0  0  0  0
    4.4370   61.5580   72.2410 C   0  0  0  0  0  0  0  0  0  0  0  0
    3.5380   61.4090   71.1820 C   0  0  0  0  0  0  0  0  0  0  0  0
    2.7480   60.2630   71.0850 C   0  0  0  0  0  0  0  0  0  0  0  0
    2.9100   59.2330   72.0160 C   0  0  0  0  0  0  0  0  0  0  0  0
    3.9430   58.3470   74.0220 N   0  0  0  0  0  0  0  0  0  0  0  0
    1.1302   62.3509   69.1755 H   0  0  0  0  0  0  0  0  0  0  0  0
    0.9816   65.6233   69.4395 H   0  0  0  0  0  0  0  0  0  0  0  0
   -0.3605   66.7175   71.4803 H   0  0  0  0  0  0  0  0  0  0  0  0
   -1.0548   61.3934   71.8621 H   0  0  0  0  0  0  0  0  0  0  0  0
   -0.9631   59.4635   73.4379 H   0  0  0  0  0  0  0  0  0  0  0  0
    0.5920   59.4977   75.3827 H   0  0  0  0  0  0  0  0  0  0  0  0
    2.0814   61.4623   75.7456 H   0  0  0  0  0  0  0  0  0  0  0  0
    2.0055   63.3925   74.1749 H   0  0  0  0  0  0  0  0  0  0  0  0
    5.2803   60.6451   74.0119 H   0  0  0  0  0  0  0  0  0  0  0  0
    5.0215   62.4840   72.3457 H   0  0  0  0  0  0  0  0  0  0  0  0
    2.0027   60.1707   70.2813 H   0  0  0  0  0  0  0  0  0  0  0  0
    2.2761   58.3363   71.9510 H   0  0  0  0  0  0  0  0  0  0  0  0
    3.4127   57.4700   73.9190 H   0  0  0  0  0  0  0  0  0  0  0  0
    4.5278   58.5004   74.8559 H   0  0  0  0  0  0  0  0  0  0  0  0
  2  1  1  0
  3  2  2  0
  4  3  1  0
  5  4  2  0
  6  5  1  0
  6  2  1  0
  7  6  1  0
  8  7  2  0
  9  8  1  0
 10  9  2  0
 11 10  1  0
 12  7  1  0
 12 11  2  0
 13  1  1  0
 14 13  2  0
 15 13  2  0
 17 16  2  0
 18 17  1  0
 19 18  2  0
 19 13  1  0
 20 19  1  0
 21 20  2  0
 21 16  1  0
 22 16  1  0
  1 23  1  0
  3 24  1  0
  4 25  1  0
  8 26  1  0
  9 27  1  0
 10 28  1  0
 11 29  1  0
 12 30  1  0
 17 31  1  0
 18 32  1  0
 20 33  1  0
 21 34  1  0
 22 35  1  0
 22 36  1  0
M  END
>  <score>  (5) 
-8.91

$$$$
=
     RDKit          3D

 36 38  0  0  0  0  0  0  0  0999 V2000
    2.1360   62.3020   74.3390 N   0  0  0  0  0  0  0  0  0  0  0  0
    2.9100   61.1150   73.9650 C   0  0  0  0  0  0  0  0  0  0  0  0
    3.1200   60.0790   74.8460 C   0  0  0  0  0  0  0  0  0  0  0  0
    3.8240   59.1200   74.1140 C   0  0  0  0  0  0  0  0  0  0  0  0
    4.0500   59.4980   72.8590 N   0  0  0  0  0  0  0  0  0  0  0  0
    3.4930   60.7420   72.7530 N   0  0  0  0  0  0  0  0  0  0  0  0
    3.5850   61.4430   71.5090 C   0  0  0  0  0  0  0  0  0  0  0  0
    4.1890   62.6990   71.3910 C   0  0  0  0  0  0  0  0  0  0  0  0
    4.2520   63.3400   70.1470 C   0  0  0  0  0  0  0  0  0  0  0  0
    3.7160   62.7370   69.0140 C   0  0  0  0  0  0  0  0  0  0  0  0
    3.1200   61.4850   69.1150 C   0  0  0  0  0  0  0  0  0  0  0  0
    3.0560   60.8400   70.3520 C   0  0  0  0  0  0  0  0  0  0  0  0
    0.4830   62.3250   73.9920 S   0  0  0  0  0  6  0  0  0  0  0  0
   -0.2240   62.9200   75.1060 O   0  0  0  0  0  0  0  0  0  0  0  0
    0.1650   60.9920   73.5230 O   0  0  0  0  0  0  0  0  0  0  0  0
    0.1760   65.1560   70.4070 C   0  0  0  0  0  0  0  0  0  0  0  0
    0.2900   63.7760   70.2140 C   0  0  0  0  0  0  0  0  0  0  0  0
    0.3920   62.9070   71.3030 C   0  0  0  0  0  0  0  0  0  0  0  0
    0.3560   63.4240   72.6000 C   0  0  0  0  0  0  0  0  0  0  0  0
    0.1510   64.7890   72.8090 C   0  0  0  0  0  0  0  0  0  0  0  0
    0.0510   65.6470   71.7110 C   0  0  0  0  0  0  0  0  0  0  0  0
   -0.0390   66.0040   69.3150 N   0  0  0  0  0  0  0  0  0  0  0  0
    2.5890   63.1027   74.8022 H   0  0  0  0  0  0  0  0  0  0  0  0
    2.8026   60.0191   75.8975 H   0  0  0  0  0  0  0  0  0  0  0  0
    4.1554   58.1572   74.5301 H   0  0  0  0  0  0  0  0  0  0  0  0
    4.6168   63.1860   72.2797 H   0  0  0  0  0  0  0  0  0  0  0  0
    4.7290   64.3278   70.0656 H   0  0  0  0  0  0  0  0  0  0  0  0
    3.7635   63.2489   68.0415 H   0  0  0  0  0  0  0  0  0  0  0  0
    2.6989   61.0025   68.2206 H   0  0  0  0  0  0  0  0  0  0  0  0
    2.5862   59.8479   70.4233 H   0  0  0  0  0  0  0  0  0  0  0  0
    0.2995   63.3694   69.1919 H   0  0  0  0  0  0  0  0  0  0  0  0
    0.4998   61.8244   71.1404 H   0  0  0  0  0  0  0  0  0  0  0  0
    0.0688   65.1863   73.8314 H   0  0  0  0  0  0  0  0  0  0  0  0
   -0.1279   66.7201   71.8735 H   0  0  0  0  0  0  0  0  0  0  0  0
   -0.1225   67.0202   69.4607 H   0  0  0  0  0  0  0  0  0  0  0  0
   -0.1137   65.6120   68.3654 H   0  0  0  0  0  0  0  0  0  0  0  0
  2  1  1  0
  3  2  2  0
  4  3  1  0
  5  4  2  0
  6  5  1  0
  6  2  1  0
  7  6  1  0
  8  7  2  0
  9  8  1  0
 10  9  2  0
 11 10  1  0
 12  7  1  0
 12 11  2  0
 13  1  1  0
 14 13  2  0
 15 13  2  0
 17 16  2  0
 18 17  1  0
 19 18  2  0
 19 13  1  0
 20 19  1  0
 21 20  2  0
 21 16  1  0
 22 16  1  0
  1 23  1  0
  3 24  1  0
  4 25  1  0
  8 26  1  0
  9 27  1  0
 10 28  1  0
 11 29  1  0
 12 30  1  0
 17 31  1  0
 18 32  1  0
 20 33  1  0
 21 34  1  0
 22 35  1  0
 22 36  1  0
M  END
>  <score>  (6) 
-8.471

$$$$
=
     RDKit          3D

 36 38  0  0  0  0  0  0  0  0999 V2000
    4.0470   62.2860   71.5390 N   0  0  0  0  0  0  0  0  0  0  0  0
    2.8630   63.1290   71.3470 C   0  0  0  0  0  0  0  0  0  0  0  0
    2.8460   64.1600   70.4360 C   0  0  0  0  0  0  0  0  0  0  0  0
    1.5470   64.6710   70.4920 C   0  0  0  0  0  0  0  0  0  0  0  0
    0.7800   64.0230   71.3640 N   0  0  0  0  0  0  0  0  0  0  0  0
    1.5870   63.0640   71.9110 N   0  0  0  0  0  0  0  0  0  0  0  0
    1.0560   62.1980   72.9180 C   0  0  0  0  0  0  0  0  0  0  0  0
    1.4330   62.2800   74.2620 C   0  0  0  0  0  0  0  0  0  0  0  0
    0.8810   61.4060   75.2070 C   0  0  0  0  0  0  0  0  0  0  0  0
   -0.0490   60.4450   74.8210 C   0  0  0  0  0  0  0  0  0  0  0  0
   -0.4390   60.3580   73.4890 C   0  0  0  0  0  0  0  0  0  0  0  0
    0.1070   61.2290   72.5440 C   0  0  0  0  0  0  0  0  0  0  0  0
    4.0630   60.7530   70.8300 S   0  0  0  0  0  6  0  0  0  0  0  0
    5.4290   60.3990   70.5070 O   0  0  0  0  0  0  0  0  0  0  0  0
    3.0320   60.7820   69.8140 O   0  0  0  0  0  0  0  0  0  0  0  0
    2.5990   57.9960   74.1790 C   0  0  0  0  0  0  0  0  0  0  0  0
    2.1570   57.8130   72.8650 C   0  0  0  0  0  0  0  0  0  0  0  0
    2.5930   58.6560   71.8400 C   0  0  0  0  0  0  0  0  0  0  0  0
    3.5010   59.6780   72.1290 C   0  0  0  0  0  0  0  0  0  0  0  0
    4.0200   59.8140   73.4180 C   0  0  0  0  0  0  0  0  0  0  0  0
    3.5740   58.9650   74.4340 C   0  0  0  0  0  0  0  0  0  0  0  0
    2.2440   57.0790   75.1740 N   0  0  0  0  0  0  0  0  0  0  0  0
    4.8489   62.6202   72.0923 H   0  0  0  0  0  0  0  0  0  0  0  0
    3.6750   64.5066   69.8015 H   0  0  0  0  0  0  0  0  0  0  0  0
    1.1970   65.5166   69.8817 H   0  0  0  0  0  0  0  0  0  0  0  0
    2.1673   63.0352   74.5789 H   0  0  0  0  0  0  0  0  0  0  0  0
    1.1846   61.4795   76.2617 H   0  0  0  0  0  0  0  0  0  0  0  0
   -0.4739   59.7570   75.5667 H   0  0  0  0  0  0  0  0  0  0  0  0
   -1.1773   59.6034   73.1800 H   0  0  0  0  0  0  0  0  0  0  0  0
   -0.2091   61.1566   71.4929 H   0  0  0  0  0  0  0  0  0  0  0  0
    1.4576   56.9955   72.6358 H   0  0  0  0  0  0  0  0  0  0  0  0
    2.2243   58.5163   70.8131 H   0  0  0  0  0  0  0  0  0  0  0  0
    4.7752   60.5846   73.6322 H   0  0  0  0  0  0  0  0  0  0  0  0
    3.9947   59.0600   75.4459 H   0  0  0  0  0  0  0  0  0  0  0  0
    2.5709   57.2161   76.1411 H   0  0  0  0  0  0  0  0  0  0  0  0
    1.6557   56.2667   74.9395 H   0  0  0  0  0  0  0  0  0  0  0  0
  2  1  1  0
  3  2  2  0
  4  3  1  0
  5  4  2  0
  6  5  1  0
  6  2  1  0
  7  6  1  0
  8  7  2  0
  9  8  1  0
 10  9  2  0
 11 10  1  0
 12  7  1  0
 12 11  2  0
 13  1  1  0
 14 13  2  0
 15 13  2  0
 17 16  2  0
 18 17  1  0
 19 18  2  0
 19 13  1  0
 20 19  1  0
 21 20  2  0
 21 16  1  0
 22 16  1  0
  1 23  1  0
  3 24  1  0
  4 25  1  0
  8 26  1  0
  9 27  1  0
 10 28  1  0
 11 29  1  0
 12 30  1  0
 17 31  1  0
 18 32  1  0
 20 33  1  0
 21 34  1  0
 22 35  1  0
 22 36  1  0
M  END
>  <score>  (7) 
-8.439

$$$$
=
     RDKit          3D

 36 38  0  0  0  0  0  0  0  0999 V2000
    1.8490   62.5040   69.9070 N   0  0  0  0  0  0  0  0  0  0  0  0
    3.1900   62.2980   70.4640 C   0  0  0  0  0  0  0  0  0  0  0  0
    4.1750   63.2520   70.3550 C   0  0  0  0  0  0  0  0  0  0  0  0
    5.2640   62.7300   71.0560 C   0  0  0  0  0  0  0  0  0  0  0  0
    5.0070   61.5360   71.5830 N   0  0  0  0  0  0  0  0  0  0  0  0
    3.7210   61.2490   71.2160 N   0  0  0  0  0  0  0  0  0  0  0  0
    3.1440   60.0040   71.6160 C   0  0  0  0  0  0  0  0  0  0  0  0
    3.3720   58.8070   70.9280 C   0  0  0  0  0  0  0  0  0  0  0  0
    2.7810   57.6150   71.3640 C   0  0  0  0  0  0  0  0  0  0  0  0
    1.9590   57.6040   72.4870 C   0  0  0  0  0  0  0  0  0  0  0  0
    1.7290   58.7840   73.1850 C   0  0  0  0  0  0  0  0  0  0  0  0
    2.3190   59.9750   72.7560 C   0  0  0  0  0  0  0  0  0  0  0  0
    0.8790   63.7130   70.5790 S   0  0  0  0  0  6  0  0  0  0  0  0
   -0.3250   63.8440   69.7860 O   0  0  0  0  0  0  0  0  0  0  0  0
    1.7600   64.8400   70.8030 O   0  0  0  0  0  0  0  0  0  0  0  0
   -0.2900   62.0520   74.6820 C   0  0  0  0  0  0  0  0  0  0  0  0
   -0.9410   61.6110   73.5260 C   0  0  0  0  0  0  0  0  0  0  0  0
   -0.5950   62.1200   72.2720 C   0  0  0  0  0  0  0  0  0  0  0  0
    0.4310   63.0630   72.1710 C   0  0  0  0  0  0  0  0  0  0  0  0
    1.1510   63.4440   73.3050 C   0  0  0  0  0  0  0  0  0  0  0  0
    0.7930   62.9280   74.5530 C   0  0  0  0  0  0  0  0  0  0  0  0
   -0.5660   61.4540   75.9160 N   0  0  0  0  0  0  0  0  0  0  0  0
    1.5072   61.9262   69.1258 H   0  0  0  0  0  0  0  0  0  0  0  0
    4.1173   64.2167   69.8296 H   0  0  0  0  0  0  0  0  0  0  0  0
    6.2282   63.2490   71.1609 H   0  0  0  0  0  0  0  0  0  0  0  0
    4.0197   58.8025   70.0389 H   0  0  0  0  0  0  0  0  0  0  0  0
    2.9677   56.6803   70.8149 H   0  0  0  0  0  0  0  0  0  0  0  0
    1.4931   56.6652   72.8210 H   0  0  0  0  0  0  0  0  0  0  0  0
    1.0825   58.7797   74.0750 H   0  0  0  0  0  0  0  0  0  0  0  0
    2.1364   60.9034   73.3169 H   0  0  0  0  0  0  0  0  0  0  0  0
   -1.7353   60.8541   73.6049 H   0  0  0  0  0  0  0  0  0  0  0  0
   -1.1264   61.7809   71.3706 H   0  0  0  0  0  0  0  0  0  0  0  0
    1.9939   64.1452   73.2164 H   0  0  0  0  0  0  0  0  0  0  0  0
    1.3697   63.2140   75.4450 H   0  0  0  0  0  0  0  0  0  0  0  0
   -0.0848   61.7811   76.7659 H   0  0  0  0  0  0  0  0  0  0  0  0
   -1.2505   60.6866   75.9748 H   0  0  0  0  0  0  0  0  0  0  0  0
  2  1  1  0
  3  2  2  0
  4  3  1  0
  5  4  2  0
  6  5  1  0
  6  2  1  0
  7  6  1  0
  8  7  2  0
  9  8  1  0
 10  9  2  0
 11 10  1  0
 12  7  1  0
 12 11  2  0
 13  1  1  0
 14 13  2  0
 15 13  2  0
 17 16  2  0
 18 17  1  0
 19 18  2  0
 19 13  1  0
 20 19  1  0
 21 20  2  0
 21 16  1  0
 22 16  1  0
  1 23  1  0
  3 24  1  0
  4 25  1  0
  8 26  1  0
  9 27  1  0
 10 28  1  0
 11 29  1  0
 12 30  1  0
 17 31  1  0
 18 32  1  0
 20 33  1  0
 21 34  1  0
 22 35  1  0
 22 36  1  0
M  END
>  <score>  (8) 
-8.098

$$$$
=
     RDKit          3D

 36 38  0  0  0  0  0  0  0  0999 V2000
    3.4070   62.5720   71.0570 N   0  0  0  0  0  0  0  0  0  0  0  0
    3.4240   61.1440   70.7250 C   0  0  0  0  0  0  0  0  0  0  0  0
    3.8760   60.6870   69.5090 C   0  0  0  0  0  0  0  0  0  0  0  0
    3.8060   59.2950   69.5970 C   0  0  0  0  0  0  0  0  0  0  0  0
    3.3500   58.8790   70.7750 N   0  0  0  0  0  0  0  0  0  0  0  0
    3.1010   60.0200   71.4870 N   0  0  0  0  0  0  0  0  0  0  0  0
    2.5730   59.9120   72.8120 C   0  0  0  0  0  0  0  0  0  0  0  0
    3.1490   60.5580   73.9110 C   0  0  0  0  0  0  0  0  0  0  0  0
    2.5900   60.4190   75.1880 C   0  0  0  0  0  0  0  0  0  0  0  0
    1.4550   59.6360   75.3790 C   0  0  0  0  0  0  0  0  0  0  0  0
    0.8670   58.9950   74.2950 C   0  0  0  0  0  0  0  0  0  0  0  0
    1.4200   59.1330   73.0190 C   0  0  0  0  0  0  0  0  0  0  0  0
    2.0010   63.4520   70.7390 S   0  0  0  0  0  6  0  0  0  0  0  0
    1.3950   62.9480   69.5250 O   0  0  0  0  0  0  0  0  0  0  0  0
    2.3740   64.8450   70.8730 O   0  0  0  0  0  0  0  0  0  0  0  0
   -0.7380   62.4080   74.2560 C   0  0  0  0  0  0  0  0  0  0  0  0
    0.3310   63.2930   74.4270 C   0  0  0  0  0  0  0  0  0  0  0  0
    1.1750   63.6100   73.3600 C   0  0  0  0  0  0  0  0  0  0  0  0
    0.9320   63.0530   72.1030 C   0  0  0  0  0  0  0  0  0  0  0  0
   -0.1840   62.2400   71.8960 C   0  0  0  0  0  0  0  0  0  0  0  0
   -1.0190   61.9300   72.9730 C   0  0  0  0  0  0  0  0  0  0  0  0
   -1.6420   62.1870   75.3010 N   0  0  0  0  0  0  0  0  0  0  0  0
    4.2318   63.0270   71.4737 H   0  0  0  0  0  0  0  0  0  0  0  0
    4.2182   61.2874   68.6532 H   0  0  0  0  0  0  0  0  0  0  0  0
    4.0963   58.6167   68.7811 H   0  0  0  0  0  0  0  0  0  0  0  0
    4.0463   61.1789   73.7716 H   0  0  0  0  0  0  0  0  0  0  0  0
    3.0508   60.9318   76.0451 H   0  0  0  0  0  0  0  0  0  0  0  0
    1.0246   59.5249   76.3852 H   0  0  0  0  0  0  0  0  0  0  0  0
   -0.0329   58.3796   74.4413 H   0  0  0  0  0  0  0  0  0  0  0  0
    0.9474   58.6257   72.1650 H   0  0  0  0  0  0  0  0  0  0  0  0
    0.5095   63.7451   75.4138 H   0  0  0  0  0  0  0  0  0  0  0  0
    2.0243   64.2930   73.5089 H   0  0  0  0  0  0  0  0  0  0  0  0
   -0.4044   61.8464   70.8928 H   0  0  0  0  0  0  0  0  0  0  0  0
   -1.9075   61.3026   72.8091 H   0  0  0  0  0  0  0  0  0  0  0  0
   -2.4285   61.5345   75.1722 H   0  0  0  0  0  0  0  0  0  0  0  0
   -1.5209   62.6768   76.1990 H   0  0  0  0  0  0  0  0  0  0  0  0
  2  1  1  0
  3  2  2  0
  4  3  1  0
  5  4  2  0
  6  5  1  0
  6  2  1  0
  7  6  1  0
  8  7  2  0
  9  8  1  0
 10  9  2  0
 11 10  1  0
 12  7  1  0
 12 11  2  0
 13  1  1  0
 14 13  2  0
 15 13  2  0
 17 16  2  0
 18 17  1  0
 19 18  2  0
 19 13  1  0
 20 19  1  0
 21 20  2  0
 21 16  1  0
 22 16  1  0
  1 23  1  0
  3 24  1  0
  4 25  1  0
  8 26  1  0
  9 27  1  0
 10 28  1  0
 11 29  1  0
 12 30  1  0
 17 31  1  0
 18 32  1  0
 20 33  1  0
 21 34  1  0
 22 35  1  0
 22 36  1  0
M  END
>  <score>  (9) 
-7.845

$$$$
