=
     RDKit          3D

123125  0  0  0  0  0  0  0  0999 V2000
    1.3100   56.3350   76.9640 C   0  0  2  0  0  0  0  0  0  0  0  0
    2.6170   56.4710   77.5120 O   0  0  0  0  0  0  0  0  0  0  0  0
    3.5390   57.2830   76.7730 C   0  0  2  0  0  0  0  0  0  0  0  0
    4.1520   58.2900   77.7430 C   0  0  0  0  0  0  0  0  0  0  0  0
    2.9450   57.9690   75.5230 C   0  0  2  0  0  0  0  0  0  0  0  0
    2.2790   56.8700   74.6680 C   0  0  1  0  0  0  0  0  0  0  0  0
    1.3980   55.8990   75.4890 C   0  0  1  0  0  0  0  0  0  0  0  0
    1.5430   57.4820   73.4580 N   0  0  0  0  0  4  0  0  0  0  0  0
    0.0390   57.4360   73.5000 C   0  0  0  0  0  0  0  0  0  0  0  0
    2.0840   56.9920   72.1490 C   0  0  0  0  0  0  0  0  0  0  0  0
    1.9350   54.5710   75.3630 O   0  0  0  0  0  0  0  0  0  0  0  0
    3.9970   58.6050   74.7740 O   0  0  0  0  0  0  0  0  0  0  0  0
    3.5120   59.5770   73.8470 C   0  0  2  0  0  0  0  0  0  0  0  0
    4.6370   60.1430   73.1620 O   0  0  0  0  0  0  0  0  0  0  0  0
    4.3830   61.4430   72.5780 C   0  0  1  0  0  0  0  0  0  0  0  0
    5.2900   61.5770   71.3620 C   0  0  0  0  0  0  0  0  0  0  0  0
    2.8860   61.6490   72.2690 C   0  0  1  0  0  0  0  0  0  0  0  0
    2.1270   61.6710   73.6230 C   0  0  2  0  0  0  0  0  0  0  0  0
    2.7210   60.6380   74.6030 C   0  0  0  0  0  0  0  0  0  0  0  0
    0.6290   61.4420   73.4060 C   0  0  0  0  0  0  0  0  0  0  0  0
    2.2730   62.9590   74.2380 O   0  0  0  0  0  0  0  0  0  0  0  0
    2.6270   62.8750   71.5590 O   0  0  0  0  0  0  0  0  0  0  0  0
    1.9400   62.7560   70.3830 C   0  0  0  0  0  0  0  0  0  0  0  0
    2.3160   62.0850   69.4310 O   0  0  0  0  0  0  0  0  0  0  0  0
    0.6610   63.5610   70.4640 C   0  0  0  0  0  0  0  0  0  0  0  0
    0.7750   64.9390   71.1340 C   0  0  0  0  0  0  0  0  0  0  0  0
    0.0150   65.0190   72.4590 C   0  0  0  0  0  0  0  0  0  0  0  0
    0.3740   66.0810   70.1990 C   0  0  0  0  0  0  0  0  0  0  0  0
    0.6020   57.5640   77.0280 O   0  0  0  0  0  0  0  0  0  0  0  0
   -0.1360   58.7930   79.0620 C   0  0  1  0  0  0  0  0  0  0  0  0
    1.1170   59.6390   78.7140 C   0  0  0  0  0  0  0  0  0  0  0  0
    1.3060   60.9360   79.5550 C   0  0  1  0  0  0  0  0  0  0  0  0
    2.6520   60.8590   80.2960 C   0  0  0  0  0  0  0  0  0  0  0  0
    1.2810   62.2340   78.6940 C   0  0  2  0  0  0  0  0  0  0  0  0
   -0.0400   62.6470   78.0940 C   0  0  0  0  0  0  0  0  0  0  0  0
   -1.2590   62.3850   78.5960 C   0  0  0  0  0  0  0  0  0  0  0  0
   -2.5260   62.8040   78.0360 C   0  0  0  0  0  0  0  0  0  0  0  0
   -2.8240   62.8260   76.7280 C   0  0  0  0  0  0  0  0  0  0  0  0
   -4.1930   63.1350   76.1790 C   0  0  0  0  0  0  0  0  0  0  0  0
   -4.9790   61.8780   75.7460 C   0  0  2  0  0  0  0  0  0  0  0  0
   -4.3120   61.2280   74.6340 O   0  0  0  0  0  0  0  0  0  0  0  0
   -3.3220   60.3200   74.7740 C   0  0  0  0  0  0  0  0  0  0  0  0
   -2.4810   60.1800   73.8870 O   0  0  0  0  0  0  0  0  0  0  0  0
   -3.2880   59.4760   76.0270 C   0  0  0  0  0  0  0  0  0  0  0  0
   -1.9050   58.8200   76.1780 C   0  0  2  0  0  0  0  0  0  0  0  0
   -1.8380   57.7740   77.3350 C   0  0  1  0  0  0  0  0  0  0  0  0
   -0.4330   57.6340   78.0200 C   0  0  1  0  0  0  0  0  0  0  0  0
   -6.3630   62.2770   75.2390 C   0  0  0  0  0  0  0  0  0  0  0  0
   -0.9250   59.8460   76.3440 O   0  0  0  0  0  0  0  0  0  0  0  0
    2.2060   62.0820   77.6110 O   0  0  0  0  0  0  0  0  0  0  0  0
   -2.8410   58.0440   78.3280 O   0  0  0  0  0  0  0  0  0  0  0  0
   -3.5320   56.8690   78.7480 C   0  0  0  0  0  0  0  0  0  0  0  0
    0.0250   58.1970   80.4770 C   0  0  0  0  0  0  0  0  0  0  0  0
    1.2720   56.1570   80.7040 O   0  0  0  0  0  0  0  0  0  0  0  0
    1.2830   57.3790   80.5930 C   0  0  0  0  0  0  0  0  0  0  0  0
    0.7765   55.5757   77.5546 H   0  0  0  0  0  0  0  0  0  0  0  0
    4.3102   56.6211   76.3523 H   0  0  0  0  0  0  0  0  0  0  0  0
    3.9566   57.9690   78.7768 H   0  0  0  0  0  0  0  0  0  0  0  0
    5.2377   58.3463   77.5755 H   0  0  0  0  0  0  0  0  0  0  0  0
    3.7034   59.2803   77.5755 H   0  0  0  0  0  0  0  0  0  0  0  0
    2.2102   58.7365   75.8077 H   0  0  0  0  0  0  0  0  0  0  0  0
    3.0877   56.2376   74.2730 H   0  0  0  0  0  0  0  0  0  0  0  0
    0.3708   55.9139   75.0958 H   0  0  0  0  0  0  0  0  0  0  0  0
    1.7575   58.4861   73.5395 H   0  0  0  0  0  0  0  0  0  0  0  0
   -0.2984   57.4257   74.5469 H   0  0  0  0  0  0  0  0  0  0  0  0
   -0.3693   58.3221   72.9919 H   0  0  0  0  0  0  0  0  0  0  0  0
   -0.3144   56.5266   72.9919 H   0  0  0  0  0  0  0  0  0  0  0  0
    2.8877   56.2641   72.3338 H   0  0  0  0  0  0  0  0  0  0  0  0
    1.2777   56.5105   71.5762 H   0  0  0  0  0  0  0  0  0  0  0  0
    2.4836   57.8418   71.5762 H   0  0  0  0  0  0  0  0  0  0  0  0
    2.0889   54.1904   76.2639 H   0  0  0  0  0  0  0  0  0  0  0  0
    2.8394   59.1211   73.1055 H   0  0  0  0  0  0  0  0  0  0  0  0
    4.6208   62.2492   73.2876 H   0  0  0  0  0  0  0  0  0  0  0  0
    6.3276   61.7303   71.6936 H   0  0  0  0  0  0  0  0  0  0  0  0
    5.2300   60.6602   70.7570 H   0  0  0  0  0  0  0  0  0  0  0  0
    4.9675   62.4372   70.7570 H   0  0  0  0  0  0  0  0  0  0  0  0
    2.5476   60.8285   71.6192 H   0  0  0  0  0  0  0  0  0  0  0  0
    1.9037   60.1535   75.1573 H   0  0  0  0  0  0  0  0  0  0  0  0
    3.3968   61.1563   75.2991 H   0  0  0  0  0  0  0  0  0  0  0  0
    0.1249   61.3649   74.3806 H   0  0  0  0  0  0  0  0  0  0  0  0
    0.2071   62.2861   72.8407 H   0  0  0  0  0  0  0  0  0  0  0  0
    0.4786   60.5104   72.8407 H   0  0  0  0  0  0  0  0  0  0  0  0
    2.2615   62.8577   75.2227 H   0  0  0  0  0  0  0  0  0  0  0  0
    0.2942   63.7145   69.4384 H   0  0  0  0  0  0  0  0  0  0  0  0
   -0.0183   62.9760   71.1015 H   0  0  0  0  0  0  0  0  0  0  0  0
    1.8429   65.0644   71.3662 H   0  0  0  0  0  0  0  0  0  0  0  0
    0.7263   64.9441   73.2948 H   0  0  0  0  0  0  0  0  0  0  0  0
   -0.5199   65.9784   72.5176 H   0  0  0  0  0  0  0  0  0  0  0  0
   -0.7079   64.1920   72.5176 H   0  0  0  0  0  0  0  0  0  0  0  0
    0.0678   66.9530   70.7956 H   0  0  0  0  0  0  0  0  0  0  0  0
    1.2303   66.3532   69.5645 H   0  0  0  0  0  0  0  0  0  0  0  0
   -0.4645   65.7581   69.5645 H   0  0  0  0  0  0  0  0  0  0  0  0
   -0.9993   59.4734   79.0197 H   0  0  0  0  0  0  0  0  0  0  0  0
    2.0047   59.0066   78.8626 H   0  0  0  0  0  0  0  0  0  0  0  0
    0.9776   59.9711   77.6746 H   0  0  0  0  0  0  0  0  0  0  0  0
    0.4601   60.9930   80.2559 H   0  0  0  0  0  0  0  0  0  0  0  0
    2.4741   60.8692   81.3815 H   0  0  0  0  0  0  0  0  0  0  0  0
    3.1709   59.9297   80.0182 H   0  0  0  0  0  0  0  0  0  0  0  0
    3.2735   61.7231   80.0182 H   0  0  0  0  0  0  0  0  0  0  0  0
    1.5361   63.0281   79.4112 H   0  0  0  0  0  0  0  0  0  0  0  0
   -0.0020   63.2179   77.1545 H   0  0  0  0  0  0  0  0  0  0  0  0
   -1.2974   61.7943   79.5232 H   0  0  0  0  0  0  0  0  0  0  0  0
   -3.3069   63.1304   78.7387 H   0  0  0  0  0  0  0  0  0  0  0  0
   -2.0190   62.6047   76.0118 H   0  0  0  0  0  0  0  0  0  0  0  0
   -4.7706   63.6567   76.9563 H   0  0  0  0  0  0  0  0  0  0  0  0
   -4.0503   63.7538   75.2808 H   0  0  0  0  0  0  0  0  0  0  0  0
   -5.0455   61.2102   76.6175 H   0  0  0  0  0  0  0  0  0  0  0  0
   -3.4872   60.1129   76.9015 H   0  0  0  0  0  0  0  0  0  0  0  0
   -4.0556   58.6913   75.9564 H   0  0  0  0  0  0  0  0  0  0  0  0
   -1.6996   58.2470   75.2617 H   0  0  0  0  0  0  0  0  0  0  0  0
   -2.0323   56.8066   76.8487 H   0  0  0  0  0  0  0  0  0  0  0  0
   -0.4488   56.6953   78.5933 H   0  0  0  0  0  0  0  0  0  0  0  0
   -7.0262   62.4682   76.0955 H   0  0  0  0  0  0  0  0  0  0  0  0
   -6.2811   63.1881   74.6281 H   0  0  0  0  0  0  0  0  0  0  0  0
   -6.7787   61.4621   74.6281 H   0  0  0  0  0  0  0  0  0  0  0  0
   -0.7735   60.0046   77.3094 H   0  0  0  0  0  0  0  0  0  0  0  0
    3.1155   61.9325   77.9723 H   0  0  0  0  0  0  0  0  0  0  0  0
   -3.5548   56.8302   79.8471 H   0  0  0  0  0  0  0  0  0  0  0  0
   -4.5612   56.8906   78.3604 H   0  0  0  0  0  0  0  0  0  0  0  0
   -3.0128   55.9800   78.3604 H   0  0  0  0  0  0  0  0  0  0  0  0
    0.0642   59.0181   81.2080 H   0  0  0  0  0  0  0  0  0  0  0  0
   -0.8336   57.5379   80.6728 H   0  0  0  0  0  0  0  0  0  0  0  0
    2.2526   57.8982   80.5776 H   0  0  0  0  0  0  0  0  0  0  0  0
  2  1  1  0
  3  2  1  0
  4  3  1  0
  5  3  1  0
  6  5  1  0
  7  6  1  0
  7  1  1  0
  8  6  1  0
  9  8  1  0
 10  8  1  0
 11  7  1  0
 12  5  1  0
 13 12  1  0
 14 13  1  0
 15 14  1  0
 16 15  1  0
 17 15  1  0
 18 17  1  0
 19 13  1  0
 19 18  1  0
 20 18  1  0
 18 21  1  1
 22 17  1  0
 23 22  1  0
 24 23  2  0
 25 23  1  0
 26 25  1  0
 27 26  1  0
 28 26  1  0
 29  1  1  0
 31 30  1  0
 32 31  1  0
 33 32  1  0
 34 32  1  0
 35 34  1  0
 36 35  2  0
 37 36  1  0
 38 37  2  0
 39 38  1  0
 40 39  1  0
 41 40  1  0
 42 41  1  0
 43 42  2  0
 44 42  1  0
 45 44  1  0
 46 45  1  0
 47 46  1  0
 47 30  1  0
 47 29  1  0
 48 40  1  0
 49 45  1  0
 50 34  1  0
 51 46  1  0
 52 51  1  0
 53 30  1  0
 55 54  2  0
 55 53  1  0
  1 56  1  1
  3 57  1  6
  4 58  1  0
  4 59  1  0
  4 60  1  0
  5 61  1  1
  6 62  1  6
  7 63  1  6
  8 64  1  0
  9 65  1  0
  9 66  1  0
  9 67  1  0
 10 68  1  0
 10 69  1  0
 10 70  1  0
 11 71  1  0
 13 72  1  6
 15 73  1  1
 16 74  1  0
 16 75  1  0
 16 76  1  0
 17 77  1  6
 19 78  1  0
 19 79  1  0
 20 80  1  0
 20 81  1  0
 20 82  1  0
 21 83  1  0
 25 84  1  0
 25 85  1  0
 26 86  1  0
 27 87  1  0
 27 88  1  0
 27 89  1  0
 28 90  1  0
 28 91  1  0
 28 92  1  0
 30 93  1  1
 31 94  1  0
 31 95  1  0
 32 96  1  1
 33 97  1  0
 33 98  1  0
 33 99  1  0
 34100  1  1
 35101  1  0
 36102  1  0
 37103  1  0
 38104  1  0
 39105  1  0
 39106  1  0
 40107  1  1
 44108  1  0
 44109  1  0
 45110  1  6
 46111  1  6
 47112  1  1
 48113  1  0
 48114  1  0
 48115  1  0
 49116  1  0
 50117  1  0
 52118  1  0
 52119  1  0
 52120  1  0
 53121  1  0
 53122  1  0
 55123  1  0
M  CHG  1   8   1
M  END
>  <score>  (1) 
-7.035

$$$$
=
     RDKit          3D

123125  0  0  0  0  0  0  0  0999 V2000
    1.0670   57.7600   79.2380 C   0  0  2  0  0  0  0  0  0  0  0  0
    2.3750   58.2690   79.4820 O   0  0  0  0  0  0  0  0  0  0  0  0
    3.2140   58.4520   78.3340 C   0  0  2  0  0  0  0  0  0  0  0  0
    3.7750   59.8700   78.3910 C   0  0  0  0  0  0  0  0  0  0  0  0
    2.5400   58.1480   76.9790 C   0  0  2  0  0  0  0  0  0  0  0  0
    1.9350   56.7310   77.0730 C   0  0  1  0  0  0  0  0  0  0  0  0
    1.1500   56.4810   78.3820 C   0  0  1  0  0  0  0  0  0  0  0  0
    1.1250   56.3900   75.8050 N   0  0  0  0  0  4  0  0  0  0  0  0
   -0.3500   56.1610   75.9980 C   0  0  0  0  0  0  0  0  0  0  0  0
    1.7610   55.3050   74.9900 C   0  0  0  0  0  0  0  0  0  0  0  0
    1.7810   55.4060   79.1000 O   0  0  0  0  0  0  0  0  0  0  0  0
    3.5210   58.1950   75.9270 O   0  0  0  0  0  0  0  0  0  0  0  0
    3.2270   59.1770   74.9330 C   0  0  2  0  0  0  0  0  0  0  0  0
    1.8560   59.0220   74.5430 O   0  0  0  0  0  0  0  0  0  0  0  0
    1.5430   59.5750   73.2430 C   0  0  1  0  0  0  0  0  0  0  0  0
    0.0800   59.9960   73.2700 C   0  0  0  0  0  0  0  0  0  0  0  0
    2.5140   60.7080   72.8540 C   0  0  1  0  0  0  0  0  0  0  0  0
    3.9240   60.0790   72.6860 C   0  0  2  0  0  0  0  0  0  0  0  0
    4.1720   58.9920   73.7520 C   0  0  0  0  0  0  0  0  0  0  0  0
    5.0060   61.1620   72.7250 C   0  0  0  0  0  0  0  0  0  0  0  0
    4.0160   59.4350   71.4070 O   0  0  0  0  0  0  0  0  0  0  0  0
    2.1390   61.3670   71.6290 O   0  0  0  0  0  0  0  0  0  0  0  0
    1.7490   62.6730   71.7450 C   0  0  0  0  0  0  0  0  0  0  0  0
    0.9590   63.0840   72.5840 O   0  0  0  0  0  0  0  0  0  0  0  0
    2.4550   63.5030   70.6940 C   0  0  0  0  0  0  0  0  0  0  0  0
    3.6630   62.8420   70.0130 C   0  0  0  0  0  0  0  0  0  0  0  0
    4.9840   63.5310   70.3510 C   0  0  0  0  0  0  0  0  0  0  0  0
    3.4830   62.7060   68.5000 C   0  0  0  0  0  0  0  0  0  0  0  0
    0.2720   58.7120   78.5470 O   0  0  0  0  0  0  0  0  0  0  0  0
   -0.5920   60.9610   79.1670 C   0  0  1  0  0  0  0  0  0  0  0  0
    0.4660   61.3940   78.1180 C   0  0  0  0  0  0  0  0  0  0  0  0
    0.4470   62.9010   77.7280 C   0  0  1  0  0  0  0  0  0  0  0  0
    1.8160   63.5200   78.0630 C   0  0  0  0  0  0  0  0  0  0  0  0
    0.1450   63.1390   76.2190 C   0  0  2  0  0  0  0  0  0  0  0  0
   -1.2530   62.8520   75.7330 C   0  0  0  0  0  0  0  0  0  0  0  0
   -2.3800   62.9290   76.4620 C   0  0  0  0  0  0  0  0  0  0  0  0
   -3.7250   62.6800   75.9910 C   0  0  0  0  0  0  0  0  0  0  0  0
   -4.0780   61.7060   75.1390 C   0  0  0  0  0  0  0  0  0  0  0  0
   -5.5030   61.3820   74.7700 C   0  0  0  0  0  0  0  0  0  0  0  0
   -6.0610   60.1440   75.5080 C   0  0  2  0  0  0  0  0  0  0  0  0
   -5.3340   58.9540   75.1100 O   0  0  0  0  0  0  0  0  0  0  0  0
   -4.1880   58.5390   75.6920 C   0  0  0  0  0  0  0  0  0  0  0  0
   -3.3750   57.8730   75.0520 O   0  0  0  0  0  0  0  0  0  0  0  0
   -3.9440   58.8950   77.1410 C   0  0  0  0  0  0  0  0  0  0  0  0
   -2.4590   58.6950   77.4850 C   0  0  2  0  0  0  0  0  0  0  0  0
   -2.1490   58.8470   79.0080 C   0  0  1  0  0  0  0  0  0  0  0  0
   -0.7150   59.3890   79.3410 C   0  0  1  0  0  0  0  0  0  0  0  0
   -7.5150   59.9090   75.1060 C   0  0  0  0  0  0  0  0  0  0  0  0
   -1.6800   59.6000   76.7010 O   0  0  0  0  0  0  0  0  0  0  0  0
    1.0360   62.3290   75.4410 O   0  0  0  0  0  0  0  0  0  0  0  0
   -3.1420   59.6630   79.6530 O   0  0  0  0  0  0  0  0  0  0  0  0
   -3.8710   58.9560   80.6540 C   0  0  0  0  0  0  0  0  0  0  0  0
   -0.2630   61.6140   80.5260 C   0  0  0  0  0  0  0  0  0  0  0  0
   -2.1840   63.0240   80.2160 O   0  0  0  0  0  0  0  0  0  0  0  0
   -1.1040   62.8390   80.7690 C   0  0  0  0  0  0  0  0  0  0  0  0
    0.6061   57.5386   80.2119 H   0  0  0  0  0  0  0  0  0  0  0  0
    4.0210   57.7062   78.3830 H   0  0  0  0  0  0  0  0  0  0  0  0
    3.8955   60.1747   79.4411 H   0  0  0  0  0  0  0  0  0  0  0  0
    4.7521   59.8983   77.8865 H   0  0  0  0  0  0  0  0  0  0  0  0
    3.0818   60.5591   77.8865 H   0  0  0  0  0  0  0  0  0  0  0  0
    1.7583   58.8889   76.7554 H   0  0  0  0  0  0  0  0  0  0  0  0
    2.7783   56.0263   77.1210 H   0  0  0  0  0  0  0  0  0  0  0  0
    0.1149   56.1978   78.1405 H   0  0  0  0  0  0  0  0  0  0  0  0
    1.1659   57.2646   75.2626 H   0  0  0  0  0  0  0  0  0  0  0  0
   -0.5779   56.1256   77.0735 H   0  0  0  0  0  0  0  0  0  0  0  0
   -0.9128   56.9825   75.5308 H   0  0  0  0  0  0  0  0  0  0  0  0
   -0.6373   55.2075   75.5308 H   0  0  0  0  0  0  0  0  0  0  0  0
    2.2018   54.5530   75.6609 H   0  0  0  0  0  0  0  0  0  0  0  0
    0.9992   54.8286   74.3554 H   0  0  0  0  0  0  0  0  0  0  0  0
    2.5488   55.7370   74.3554 H   0  0  0  0  0  0  0  0  0  0  0  0
    1.6899   55.5612   80.0735 H   0  0  0  0  0  0  0  0  0  0  0  0
    3.3715   60.1955   75.3226 H   0  0  0  0  0  0  0  0  0  0  0  0
    1.6801   58.8243   72.4508 H   0  0  0  0  0  0  0  0  0  0  0  0
   -0.2546   60.0923   74.3134 H   0  0  0  0  0  0  0  0  0  0  0  0
   -0.0328   60.9630   72.7580 H   0  0  0  0  0  0  0  0  0  0  0  0
   -0.5295   59.2368   72.7580 H   0  0  0  0  0  0  0  0  0  0  0  0
    2.4939   61.4722   73.6449 H   0  0  0  0  0  0  0  0  0  0  0  0
    5.2113   59.0622   74.1056 H   0  0  0  0  0  0  0  0  0  0  0  0
    3.9902   58.0047   73.3023 H   0  0  0  0  0  0  0  0  0  0  0  0
    5.2464   61.4026   73.7711 H   0  0  0  0  0  0  0  0  0  0  0  0
    5.9098   60.7959   72.2160 H   0  0  0  0  0  0  0  0  0  0  0  0
    4.6390   62.0654   72.2160 H   0  0  0  0  0  0  0  0  0  0  0  0
    4.1548   58.4633   71.5360 H   0  0  0  0  0  0  0  0  0  0  0  0
    1.7218   63.7505   69.9122 H   0  0  0  0  0  0  0  0  0  0  0  0
    2.8570   64.3771   71.2273 H   0  0  0  0  0  0  0  0  0  0  0  0
    3.7135   61.8251   70.4295 H   0  0  0  0  0  0  0  0  0  0  0  0
    5.0976   63.5903   71.4435 H   0  0  0  0  0  0  0  0  0  0  0  0
    5.8181   62.9531   69.9264 H   0  0  0  0  0  0  0  0  0  0  0  0
    4.9874   64.5458   69.9264 H   0  0  0  0  0  0  0  0  0  0  0  0
    2.6214   62.0550   68.2903 H   0  0  0  0  0  0  0  0  0  0  0  0
    3.3076   63.6992   68.0609 H   0  0  0  0  0  0  0  0  0  0  0  0
    4.3905   62.2660   68.0609 H   0  0  0  0  0  0  0  0  0  0  0  0
   -1.5672   61.3054   78.7922 H   0  0  0  0  0  0  0  0  0  0  0  0
    1.4612   61.1620   78.5251 H   0  0  0  0  0  0  0  0  0  0  0  0
    0.2226   60.8415   77.1985 H   0  0  0  0  0  0  0  0  0  0  0  0
   -0.3635   63.3742   78.3017 H   0  0  0  0  0  0  0  0  0  0  0  0
    1.9364   63.5745   79.1550 H   0  0  0  0  0  0  0  0  0  0  0  0
    2.6150   62.8956   77.6367 H   0  0  0  0  0  0  0  0  0  0  0  0
    1.8749   64.5323   77.6367 H   0  0  0  0  0  0  0  0  0  0  0  0
    0.2786   64.2238   76.0948 H   0  0  0  0  0  0  0  0  0  0  0  0
   -1.3613   62.5506   74.6807 H   0  0  0  0  0  0  0  0  0  0  0  0
   -2.2685   63.2087   77.5200 H   0  0  0  0  0  0  0  0  0  0  0  0
   -4.5216   63.3421   76.3610 H   0  0  0  0  0  0  0  0  0  0  0  0
   -3.2776   61.1063   74.6810 H   0  0  0  0  0  0  0  0  0  0  0  0
   -6.1332   62.2490   75.0174 H   0  0  0  0  0  0  0  0  0  0  0  0
   -5.5161   61.1525   73.6943 H   0  0  0  0  0  0  0  0  0  0  0  0
   -5.9653   60.3286   76.5882 H   0  0  0  0  0  0  0  0  0  0  0  0
   -4.2193   59.9465   77.3098 H   0  0  0  0  0  0  0  0  0  0  0  0
   -4.5557   58.2435   77.7824 H   0  0  0  0  0  0  0  0  0  0  0  0
   -2.1911   57.6565   77.2406 H   0  0  0  0  0  0  0  0  0  0  0  0
   -2.1805   57.8211   79.4035 H   0  0  0  0  0  0  0  0  0  0  0  0
   -0.5333   59.1772   80.4050 H   0  0  0  0  0  0  0  0  0  0  0  0
   -8.1338   59.8090   76.0100 H   0  0  0  0  0  0  0  0  0  0  0  0
   -7.8727   60.7610   74.5092 H   0  0  0  0  0  0  0  0  0  0  0  0
   -7.5861   58.9877   74.5092 H   0  0  0  0  0  0  0  0  0  0  0  0
   -1.1658   60.1973   77.3001 H   0  0  0  0  0  0  0  0  0  0  0  0
    1.6159   61.8018   76.0459 H   0  0  0  0  0  0  0  0  0  0  0  0
   -3.5358   59.2811   81.6500 H   0  0  0  0  0  0  0  0  0  0  0  0
   -4.9450   59.1655   80.5421 H   0  0  0  0  0  0  0  0  0  0  0  0
   -3.6945   57.8760   80.5421 H   0  0  0  0  0  0  0  0  0  0  0  0
   -0.4532   60.8853   81.3278 H   0  0  0  0  0  0  0  0  0  0  0  0
    0.7940   61.9183   80.5152 H   0  0  0  0  0  0  0  0  0  0  0  0
   -0.7349   63.6004   81.4719 H   0  0  0  0  0  0  0  0  0  0  0  0
  2  1  1  0
  3  2  1  0
  4  3  1  0
  5  3  1  0
  6  5  1  0
  7  6  1  0
  7  1  1  0
  8  6  1  0
  9  8  1  0
 10  8  1  0
 11  7  1  0
 12  5  1  0
 13 12  1  0
 14 13  1  0
 15 14  1  0
 16 15  1  0
 17 15  1  0
 18 17  1  0
 19 13  1  0
 19 18  1  0
 20 18  1  0
 18 21  1  6
 22 17  1  0
 23 22  1  0
 24 23  2  0
 25 23  1  0
 26 25  1  0
 27 26  1  0
 28 26  1  0
 29  1  1  0
 31 30  1  0
 32 31  1  0
 33 32  1  0
 34 32  1  0
 35 34  1  0
 36 35  2  0
 37 36  1  0
 38 37  2  0
 39 38  1  0
 40 39  1  0
 41 40  1  0
 42 41  1  0
 43 42  2  0
 44 42  1  0
 45 44  1  0
 46 45  1  0
 47 46  1  0
 47 30  1  0
 47 29  1  0
 48 40  1  0
 49 45  1  0
 50 34  1  0
 51 46  1  0
 52 51  1  0
 53 30  1  0
 55 54  2  0
 55 53  1  0
  1 56  1  1
  3 57  1  1
  4 58  1  0
  4 59  1  0
  4 60  1  0
  5 61  1  6
  6 62  1  1
  7 63  1  6
  8 64  1  0
  9 65  1  0
  9 66  1  0
  9 67  1  0
 10 68  1  0
 10 69  1  0
 10 70  1  0
 11 71  1  0
 13 72  1  1
 15 73  1  6
 16 74  1  0
 16 75  1  0
 16 76  1  0
 17 77  1  1
 19 78  1  0
 19 79  1  0
 20 80  1  0
 20 81  1  0
 20 82  1  0
 21 83  1  0
 25 84  1  0
 25 85  1  0
 26 86  1  0
 27 87  1  0
 27 88  1  0
 27 89  1  0
 28 90  1  0
 28 91  1  0
 28 92  1  0
 30 93  1  6
 31 94  1  0
 31 95  1  0
 32 96  1  1
 33 97  1  0
 33 98  1  0
 33 99  1  0
 34100  1  6
 35101  1  0
 36102  1  0
 37103  1  0
 38104  1  0
 39105  1  0
 39106  1  0
 40107  1  1
 44108  1  0
 44109  1  0
 45110  1  6
 46111  1  1
 47112  1  1
 48113  1  0
 48114  1  0
 48115  1  0
 49116  1  0
 50117  1  0
 52118  1  0
 52119  1  0
 52120  1  0
 53121  1  0
 53122  1  0
 55123  1  0
M  CHG  1   8   1
M  END
>  <score>  (2) 
-6.685

$$$$
=
     RDKit          3D

123125  0  0  0  0  0  0  0  0999 V2000
    3.5160   57.4550   76.0400 C   0  0  2  0  0  0  0  0  0  0  0  0
    2.9560   56.1830   76.3510 O   0  0  0  0  0  0  0  0  0  0  0  0
    2.0560   56.1360   77.4660 C   0  0  2  0  0  0  0  0  0  0  0  0
    0.7840   55.4290   77.0070 C   0  0  0  0  0  0  0  0  0  0  0  0
    1.7580   57.5030   78.1200 C   0  0  2  0  0  0  0  0  0  0  0  0
    3.1130   58.1580   78.4570 C   0  0  1  0  0  0  0  0  0  0  0  0
    4.1400   58.0790   77.3030 C   0  0  1  0  0  0  0  0  0  0  0  0
    2.9160   59.5900   78.9970 N   0  0  0  0  0  4  0  0  0  0  0  0
    2.1520   60.5380   78.1120 C   0  0  0  0  0  0  0  0  0  0  0  0
    4.1920   60.1950   79.5000 C   0  0  0  0  0  0  0  0  0  0  0  0
    5.2830   57.3300   77.7530 O   0  0  0  0  0  0  0  0  0  0  0  0
    0.9920   57.3070   79.3230 O   0  0  0  0  0  0  0  0  0  0  0  0
   -0.3670   57.7240   79.1930 C   0  0  2  0  0  0  0  0  0  0  0  0
   -0.5540   58.9000   79.9920 O   0  0  0  0  0  0  0  0  0  0  0  0
   -1.9290   59.1520   80.3630 C   0  0  1  0  0  0  0  0  0  0  0  0
   -2.0850   60.6590   80.5240 C   0  0  0  0  0  0  0  0  0  0  0  0
   -2.9180   58.5240   79.3600 C   0  0  1  0  0  0  0  0  0  0  0  0
   -2.7620   56.9830   79.4520 C   0  0  2  0  0  0  0  0  0  0  0  0
   -1.2820   56.5900   79.6410 C   0  0  0  0  0  0  0  0  0  0  0  0
   -3.3710   56.3040   78.2220 C   0  0  0  0  0  0  0  0  0  0  0  0
   -3.4710   56.4930   80.6000 O   0  0  0  0  0  0  0  0  0  0  0  0
   -4.2880   58.8800   79.6300 O   0  0  0  0  0  0  0  0  0  0  0  0
   -4.9150   59.6260   78.6700 C   0  0  0  0  0  0  0  0  0  0  0  0
   -4.8140   60.8410   78.5670 O   0  0  0  0  0  0  0  0  0  0  0  0
   -5.7220   58.7120   77.7720 C   0  0  0  0  0  0  0  0  0  0  0  0
   -5.6990   59.0500   76.2740 C   0  0  0  0  0  0  0  0  0  0  0  0
   -6.9660   59.7700   75.8100 C   0  0  0  0  0  0  0  0  0  0  0  0
   -5.4080   57.8280   75.4010 C   0  0  0  0  0  0  0  0  0  0  0  0
    2.5230   58.3400   75.5450 O   0  0  0  0  0  0  0  0  0  0  0  0
    0.4400   58.5750   74.2040 C   0  0  1  0  0  0  0  0  0  0  0  0
    0.0900   59.5490   75.3600 C   0  0  0  0  0  0  0  0  0  0  0  0
   -1.2070   60.3870   75.1620 C   0  0  1  0  0  0  0  0  0  0  0  0
   -2.1820   60.0750   76.3110 C   0  0  0  0  0  0  0  0  0  0  0  0
   -0.9470   61.9220   75.1280 C   0  0  2  0  0  0  0  0  0  0  0  0
   -0.2340   62.4830   73.9230 C   0  0  0  0  0  0  0  0  0  0  0  0
   -0.2570   61.9760   72.6780 C   0  0  0  0  0  0  0  0  0  0  0  0
    0.4040   62.5280   71.5150 C   0  0  0  0  0  0  0  0  0  0  0  0
    1.6280   63.0760   71.5090 C   0  0  0  0  0  0  0  0  0  0  0  0
    2.3490   63.5180   70.2620 C   0  0  0  0  0  0  0  0  0  0  0  0
    3.4270   62.5170   69.7880 C   0  0  2  0  0  0  0  0  0  0  0  0
    4.4890   62.4220   70.7720 O   0  0  0  0  0  0  0  0  0  0  0  0
    4.4620   61.5880   71.8330 C   0  0  0  0  0  0  0  0  0  0  0  0
    5.0810   61.8710   72.8580 O   0  0  0  0  0  0  0  0  0  0  0  0
    3.6750   60.3020   71.7220 C   0  0  0  0  0  0  0  0  0  0  0  0
    3.4380   59.7110   73.1210 C   0  0  2  0  0  0  0  0  0  0  0  0
    2.8060   58.2830   73.0930 C   0  0  1  0  0  0  0  0  0  0  0  0
    1.8900   57.9410   74.3200 C   0  0  1  0  0  0  0  0  0  0  0  0
    4.0800   63.0230   68.5040 C   0  0  0  0  0  0  0  0  0  0  0  0
    2.6350   60.6220   73.8750 O   0  0  0  0  0  0  0  0  0  0  0  0
   -0.1720   62.2800   76.2800 O   0  0  0  0  0  0  0  0  0  0  0  0
    2.0850   58.0670   71.8680 O   0  0  0  0  0  0  0  0  0  0  0  0
    2.6530   57.0310   71.0700 C   0  0  0  0  0  0  0  0  0  0  0  0
   -0.6190   57.4540   74.1410 C   0  0  0  0  0  0  0  0  0  0  0  0
   -0.5710   55.0820   73.7640 O   0  0  0  0  0  0  0  0  0  0  0  0
   -0.0390   56.1750   73.5970 C   0  0  0  0  0  0  0  0  0  0  0  0
    4.2856   57.3035   75.2688 H   0  0  0  0  0  0  0  0  0  0  0  0
    2.5480   55.5751   78.2743 H   0  0  0  0  0  0  0  0  0  0  0  0
    0.2057   55.1076   77.8858 H   0  0  0  0  0  0  0  0  0  0  0  0
    0.1784   56.1199   76.4022 H   0  0  0  0  0  0  0  0  0  0  0  0
    1.0510   54.5499   76.4022 H   0  0  0  0  0  0  0  0  0  0  0  0
    1.1775   58.1451   77.4412 H   0  0  0  0  0  0  0  0  0  0  0  0
    3.5632   57.5632   79.2654 H   0  0  0  0  0  0  0  0  0  0  0  0
    4.4587   59.0945   77.0254 H   0  0  0  0  0  0  0  0  0  0  0  0
    2.2873   59.4494   79.8006 H   0  0  0  0  0  0  0  0  0  0  0  0
    1.5833   61.2437   78.7353 H   0  0  0  0  0  0  0  0  0  0  0  0
    2.8565   61.0951   77.4770 H   0  0  0  0  0  0  0  0  0  0  0  0
    1.4579   59.9680   77.4770 H   0  0  0  0  0  0  0  0  0  0  0  0
    4.1897   60.1939   80.6000 H   0  0  0  0  0  0  0  0  0  0  0  0
    5.0461   59.6060   79.1345 H   0  0  0  0  0  0  0  0  0  0  0  0
    4.2765   61.2291   79.1345 H   0  0  0  0  0  0  0  0  0  0  0  0
    5.3010   57.3182   78.7428 H   0  0  0  0  0  0  0  0  0  0  0  0
   -0.6126   57.9635   78.1479 H   0  0  0  0  0  0  0  0  0  0  0  0
   -2.1759   58.6659   81.3184 H   0  0  0  0  0  0  0  0  0  0  0  0
   -2.1113   60.9127   81.5940 H   0  0  0  0  0  0  0  0  0  0  0  0
   -1.2348   61.1687   80.0471 H   0  0  0  0  0  0  0  0  0  0  0  0
   -3.0216   60.9837   80.0471 H   0  0  0  0  0  0  0  0  0  0  0  0
   -2.6839   58.9039   78.3546 H   0  0  0  0  0  0  0  0  0  0  0  0
   -1.0664   55.6928   79.0422 H   0  0  0  0  0  0  0  0  0  0  0  0
   -1.1012   56.3870   80.7069 H   0  0  0  0  0  0  0  0  0  0  0  0
   -4.0730   55.5213   78.5452 H   0  0  0  0  0  0  0  0  0  0  0  0
   -3.9073   57.0512   77.6186 H   0  0  0  0  0  0  0  0  0  0  0  0
   -2.5701   55.8518   77.6186 H   0  0  0  0  0  0  0  0  0  0  0  0
   -3.0199   56.8047   81.4243 H   0  0  0  0  0  0  0  0  0  0  0  0
   -5.3317   57.6907   77.8928 H   0  0  0  0  0  0  0  0  0  0  0  0
   -6.7686   58.8335   78.0879 H   0  0  0  0  0  0  0  0  0  0  0  0
   -4.8623   59.7522   76.1442 H   0  0  0  0  0  0  0  0  0  0  0  0
   -7.5433   60.0981   76.6870 H   0  0  0  0  0  0  0  0  0  0  0  0
   -6.6892   60.6458   75.2047 H   0  0  0  0  0  0  0  0  0  0  0  0
   -7.5767   59.0840   75.2047 H   0  0  0  0  0  0  0  0  0  0  0  0
   -5.2011   56.9593   76.0434 H   0  0  0  0  0  0  0  0  0  0  0  0
   -6.2805   57.6149   74.7659 H   0  0  0  0  0  0  0  0  0  0  0  0
   -4.5331   58.0310   74.7659 H   0  0  0  0  0  0  0  0  0  0  0  0
    0.4375   59.1685   73.2779 H   0  0  0  0  0  0  0  0  0  0  0  0
   -0.0269   58.9559   76.2790 H   0  0  0  0  0  0  0  0  0  0  0  0
    0.9149   60.2755   75.4025 H   0  0  0  0  0  0  0  0  0  0  0  0
   -1.6273   60.1064   74.1850 H   0  0  0  0  0  0  0  0  0  0  0  0
   -1.6768   60.2367   77.2747 H   0  0  0  0  0  0  0  0  0  0  0  0
   -3.0568   60.7381   76.2398 H   0  0  0  0  0  0  0  0  0  0  0  0
   -2.5093   59.0272   76.2398 H   0  0  0  0  0  0  0  0  0  0  0  0
   -1.9570   62.3566   75.0965 H   0  0  0  0  0  0  0  0  0  0  0  0
    0.3620   63.3945   74.0777 H   0  0  0  0  0  0  0  0  0  0  0  0
   -0.8344   61.0517   72.5289 H   0  0  0  0  0  0  0  0  0  0  0  0
   -0.1408   62.4955   70.5600 H   0  0  0  0  0  0  0  0  0  0  0  0
    2.1373   63.2112   72.4746 H   0  0  0  0  0  0  0  0  0  0  0  0
    1.6096   63.6411   69.4570 H   0  0  0  0  0  0  0  0  0  0  0  0
    2.8640   64.4600   70.5016 H   0  0  0  0  0  0  0  0  0  0  0  0
    2.9353   61.5450   69.6349 H   0  0  0  0  0  0  0  0  0  0  0  0
    2.7059   60.5076   71.2440 H   0  0  0  0  0  0  0  0  0  0  0  0
    4.2431   59.5810   71.1159 H   0  0  0  0  0  0  0  0  0  0  0  0
    4.4177   59.5813   73.6042 H   0  0  0  0  0  0  0  0  0  0  0  0
    3.6625   57.5959   73.1585 H   0  0  0  0  0  0  0  0  0  0  0  0
    1.7547   56.8494   74.3222 H   0  0  0  0  0  0  0  0  0  0  0  0
    4.9262   63.6787   68.7568 H   0  0  0  0  0  0  0  0  0  0  0  0
    4.4422   62.1675   67.9151 H   0  0  0  0  0  0  0  0  0  0  0  0
    3.3420   63.5874   67.9151 H   0  0  0  0  0  0  0  0  0  0  0  0
    2.7752   60.4630   74.8420 H   0  0  0  0  0  0  0  0  0  0  0  0
   -0.6744   62.0479   77.1009 H   0  0  0  0  0  0  0  0  0  0  0  0
    3.0781   56.2556   71.7242 H   0  0  0  0  0  0  0  0  0  0  0  0
    1.8720   56.5873   70.4351 H   0  0  0  0  0  0  0  0  0  0  0  0
    3.4471   57.4508   70.4351 H   0  0  0  0  0  0  0  0  0  0  0  0
   -1.0039   57.2689   75.1547 H   0  0  0  0  0  0  0  0  0  0  0  0
   -1.4261   57.7798   73.4684 H   0  0  0  0  0  0  0  0  0  0  0  0
    0.9003   56.2227   73.0264 H   0  0  0  0  0  0  0  0  0  0  0  0
  2  1  1  0
  3  2  1  0
  4  3  1  0
  5  3  1  0
  6  5  1  0
  7  6  1  0
  7  1  1  0
  8  6  1  0
  9  8  1  0
 10  8  1  0
 11  7  1  0
 12  5  1  0
 13 12  1  0
 14 13  1  0
 15 14  1  0
 16 15  1  0
 17 15  1  0
 18 17  1  0
 19 13  1  0
 19 18  1  0
 20 18  1  0
 18 21  1  1
 22 17  1  0
 23 22  1  0
 24 23  2  0
 25 23  1  0
 26 25  1  0
 27 26  1  0
 28 26  1  0
 29  1  1  0
 31 30  1  0
 32 31  1  0
 33 32  1  0
 34 32  1  0
 35 34  1  0
 36 35  2  0
 37 36  1  0
 38 37  2  0
 39 38  1  0
 40 39  1  0
 41 40  1  0
 42 41  1  0
 43 42  2  0
 44 42  1  0
 45 44  1  0
 46 45  1  0
 47 46  1  0
 47 30  1  0
 47 29  1  0
 48 40  1  0
 49 45  1  0
 50 34  1  0
 51 46  1  0
 52 51  1  0
 53 30  1  0
 55 54  2  0
 55 53  1  0
  1 56  1  6
  3 57  1  1
  4 58  1  0
  4 59  1  0
  4 60  1  0
  5 61  1  6
  6 62  1  1
  7 63  1  6
  8 64  1  0
  9 65  1  0
  9 66  1  0
  9 67  1  0
 10 68  1  0
 10 69  1  0
 10 70  1  0
 11 71  1  0
 13 72  1  6
 15 73  1  1
 16 74  1  0
 16 75  1  0
 16 76  1  0
 17 77  1  6
 19 78  1  0
 19 79  1  0
 20 80  1  0
 20 81  1  0
 20 82  1  0
 21 83  1  0
 25 84  1  0
 25 85  1  0
 26 86  1  0
 27 87  1  0
 27 88  1  0
 27 89  1  0
 28 90  1  0
 28 91  1  0
 28 92  1  0
 30 93  1  6
 31 94  1  0
 31 95  1  0
 32 96  1  6
 33 97  1  0
 33 98  1  0
 33 99  1  0
 34100  1  1
 35101  1  0
 36102  1  0
 37103  1  0
 38104  1  0
 39105  1  0
 39106  1  0
 40107  1  6
 44108  1  0
 44109  1  0
 45110  1  1
 46111  1  6
 47112  1  1
 48113  1  0
 48114  1  0
 48115  1  0
 49116  1  0
 50117  1  0
 52118  1  0
 52119  1  0
 52120  1  0
 53121  1  0
 53122  1  0
 55123  1  0
M  CHG  1   8   1
M  END
>  <score>  (3) 
-6.382

$$$$
=
     RDKit          3D

123125  0  0  0  0  0  0  0  0999 V2000
    1.3580   56.2200   77.8740 C   0  0  2  0  0  0  0  0  0  0  0  0
    2.7270   56.5940   77.7590 O   0  0  0  0  0  0  0  0  0  0  0  0
    3.2000   56.8920   76.4380 C   0  0  2  0  0  0  0  0  0  0  0  0
    3.9080   58.2430   76.4910 C   0  0  0  0  0  0  0  0  0  0  0  0
    2.1200   56.8450   75.3350 C   0  0  2  0  0  0  0  0  0  0  0  0
    1.4160   55.4760   75.4370 C   0  0  1  0  0  0  0  0  0  0  0  0
    1.0360   55.0840   76.8850 C   0  0  1  0  0  0  0  0  0  0  0  0
    0.2300   55.3900   74.4550 N   0  0  0  0  0  4  0  0  0  0  0  0
   -0.9840   56.2100   74.8000 C   0  0  0  0  0  0  0  0  0  0  0  0
   -0.1280   53.9760   74.1080 C   0  0  0  0  0  0  0  0  0  0  0  0
    1.7270   53.8710   77.2300 O   0  0  0  0  0  0  0  0  0  0  0  0
    2.7400   56.9850   74.0440 O   0  0  0  0  0  0  0  0  0  0  0  0
    2.6550   58.3120   73.5240 C   0  0  2  0  0  0  0  0  0  0  0  0
    1.2700   58.6780   73.4570 O   0  0  0  0  0  0  0  0  0  0  0  0
    0.9850   59.7470   72.5240 C   0  0  1  0  0  0  0  0  0  0  0  0
   -0.2380   60.4900   73.0480 C   0  0  0  0  0  0  0  0  0  0  0  0
    2.2130   60.6490   72.2920 C   0  0  1  0  0  0  0  0  0  0  0  0
    3.2980   59.7910   71.5870 C   0  0  2  0  0  0  0  0  0  0  0  0
    3.3150   58.3550   72.1510 C   0  0  0  0  0  0  0  0  0  0  0  0
    4.6720   60.4560   71.7030 C   0  0  0  0  0  0  0  0  0  0  0  0
    2.9960   59.6850   70.1890 O   0  0  0  0  0  0  0  0  0  0  0  0
    1.9150   61.8000   71.4790 O   0  0  0  0  0  0  0  0  0  0  0  0
    2.0930   63.0190   72.0730 C   0  0  0  0  0  0  0  0  0  0  0  0
    1.9500   63.2290   73.2690 O   0  0  0  0  0  0  0  0  0  0  0  0
    2.5010   64.0320   71.0250 C   0  0  0  0  0  0  0  0  0  0  0  0
    1.3630   64.6180   70.1750 C   0  0  0  0  0  0  0  0  0  0  0  0
    1.3200   66.1450   70.2130 C   0  0  0  0  0  0  0  0  0  0  0  0
    0.0010   64.0180   70.5250 C   0  0  0  0  0  0  0  0  0  0  0  0
    0.5060   57.3190   77.5910 O   0  0  0  0  0  0  0  0  0  0  0  0
    0.3600   59.3210   79.0610 C   0  0  1  0  0  0  0  0  0  0  0  0
    1.4210   59.8410   78.0550 C   0  0  0  0  0  0  0  0  0  0  0  0
    1.8020   61.3440   78.1990 C   0  0  1  0  0  0  0  0  0  0  0  0
    3.3090   61.4510   78.4880 C   0  0  0  0  0  0  0  0  0  0  0  0
    1.4730   62.1840   76.9300 C   0  0  2  0  0  0  0  0  0  0  0  0
    0.0190   62.4380   76.6180 C   0  0  0  0  0  0  0  0  0  0  0  0
   -0.9850   62.5090   77.5090 C   0  0  0  0  0  0  0  0  0  0  0  0
   -2.3750   62.7800   77.2150 C   0  0  0  0  0  0  0  0  0  0  0  0
   -3.0490   62.3010   76.1580 C   0  0  0  0  0  0  0  0  0  0  0  0
   -4.5300   62.4860   75.9470 C   0  0  0  0  0  0  0  0  0  0  0  0
   -5.3620   61.2360   76.3120 C   0  0  2  0  0  0  0  0  0  0  0  0
   -5.0320   60.1380   75.4240 O   0  0  0  0  0  0  0  0  0  0  0  0
   -4.0120   59.2770   75.6330 C   0  0  0  0  0  0  0  0  0  0  0  0
   -3.4690   58.7190   74.6810 O   0  0  0  0  0  0  0  0  0  0  0  0
   -3.5750   59.0080   77.0550 C   0  0  0  0  0  0  0  0  0  0  0  0
   -2.1870   58.3460   77.0580 C   0  0  2  0  0  0  0  0  0  0  0  0
   -1.7390   57.8510   78.4700 C   0  0  1  0  0  0  0  0  0  0  0  0
   -0.1900   57.8730   78.7180 C   0  0  1  0  0  0  0  0  0  0  0  0
   -6.8480   61.5190   76.1050 C   0  0  0  0  0  0  0  0  0  0  0  0
   -1.2410   59.2620   76.5020 O   0  0  0  0  0  0  0  0  0  0  0  0
    2.0400   61.5290   75.7880 O   0  0  0  0  0  0  0  0  0  0  0  0
   -2.4110   58.5850   79.5060 O   0  0  0  0  0  0  0  0  0  0  0  0
   -2.9020   57.7440   80.5480 C   0  0  0  0  0  0  0  0  0  0  0  0
    0.9560   59.3310   80.4850 C   0  0  0  0  0  0  0  0  0  0  0  0
    3.2890   58.8330   80.7700 O   0  0  0  0  0  0  0  0  0  0  0  0
    2.1480   58.4180   80.5920 C   0  0  0  0  0  0  0  0  0  0  0  0
    1.1876   55.8843   78.9076 H   0  0  0  0  0  0  0  0  0  0  0  0
    3.8966   56.0944   76.1404 H   0  0  0  0  0  0  0  0  0  0  0  0
    4.0614   58.5357   77.5402 H   0  0  0  0  0  0  0  0  0  0  0  0
    4.8820   58.1666   75.9855 H   0  0  0  0  0  0  0  0  0  0  0  0
    3.2909   59.0004   75.9855 H   0  0  0  0  0  0  0  0  0  0  0  0
    1.3948   57.6625   75.4608 H   0  0  0  0  0  0  0  0  0  0  0  0
    2.1498   54.7159   75.1310 H   0  0  0  0  0  0  0  0  0  0  0  0
   -0.0489   54.9131   76.9473 H   0  0  0  0  0  0  0  0  0  0  0  0
    0.5986   55.8468   73.6086 H   0  0  0  0  0  0  0  0  0  0  0  0
   -1.0828   56.2767   75.8935 H   0  0  0  0  0  0  0  0  0  0  0  0
   -0.8755   57.2206   74.3793 H   0  0  0  0  0  0  0  0  0  0  0  0
   -1.8810   55.7320   74.3793 H   0  0  0  0  0  0  0  0  0  0  0  0
   -0.2745   53.3975   75.0321 H   0  0  0  0  0  0  0  0  0  0  0  0
   -1.0568   53.9670   73.5187 H   0  0  0  0  0  0  0  0  0  0  0  0
    0.6846   53.5261   73.5187 H   0  0  0  0  0  0  0  0  0  0  0  0
    1.7747   53.7872   78.2153 H   0  0  0  0  0  0  0  0  0  0  0  0
    3.1803   59.0292   74.1718 H   0  0  0  0  0  0  0  0  0  0  0  0
    0.7570   59.3484   71.5244 H   0  0  0  0  0  0  0  0  0  0  0  0
   -0.2275   60.4836   74.1479 H   0  0  0  0  0  0  0  0  0  0  0  0
   -0.2183   61.5289   72.6872 H   0  0  0  0  0  0  0  0  0  0  0  0
   -1.1510   59.9938   72.6872 H   0  0  0  0  0  0  0  0  0  0  0  0
    2.5550   61.0291   73.2659 H   0  0  0  0  0  0  0  0  0  0  0  0
    4.3568   58.0133   72.2395 H   0  0  0  0  0  0  0  0  0  0  0  0
    2.7568   57.6982   71.4676 H   0  0  0  0  0  0  0  0  0  0  0  0
    4.9304   60.5810   72.7649 H   0  0  0  0  0  0  0  0  0  0  0  0
    5.4277   59.8240   71.2137 H   0  0  0  0  0  0  0  0  0  0  0  0
    4.6452   61.4408   71.2137 H   0  0  0  0  0  0  0  0  0  0  0  0
    2.0680   59.3593   70.0756 H   0  0  0  0  0  0  0  0  0  0  0  0
    3.0004   64.8661   71.5397 H   0  0  0  0  0  0  0  0  0  0  0  0
    3.1462   63.4864   70.3207 H   0  0  0  0  0  0  0  0  0  0  0  0
    1.5920   64.3285   69.1388 H   0  0  0  0  0  0  0  0  0  0  0  0
    1.3104   66.4856   71.2589 H   0  0  0  0  0  0  0  0  0  0  0  0
    2.2071   66.5496   69.7037 H   0  0  0  0  0  0  0  0  0  0  0  0
    0.4115   66.4990   69.7037 H   0  0  0  0  0  0  0  0  0  0  0  0
   -0.1084   63.9698   71.6185 H   0  0  0  0  0  0  0  0  0  0  0  0
   -0.7964   64.6482   70.1042 H   0  0  0  0  0  0  0  0  0  0  0  0
   -0.0722   63.0043   70.1042 H   0  0  0  0  0  0  0  0  0  0  0  0
   -0.5015   60.0015   78.9919 H   0  0  0  0  0  0  0  0  0  0  0  0
    2.3359   59.2452   78.1893 H   0  0  0  0  0  0  0  0  0  0  0  0
    0.9673   59.7388   77.0581 H   0  0  0  0  0  0  0  0  0  0  0  0
    1.2010   61.7526   79.0247 H   0  0  0  0  0  0  0  0  0  0  0  0
    3.4739   61.4627   79.5755 H   0  0  0  0  0  0  0  0  0  0  0  0
    3.8290   60.5875   78.0476 H   0  0  0  0  0  0  0  0  0  0  0  0
    3.7018   62.3793   78.0476 H   0  0  0  0  0  0  0  0  0  0  0  0
    1.8992   63.1728   77.1550 H   0  0  0  0  0  0  0  0  0  0  0  0
   -0.2450   62.5786   75.5595 H   0  0  0  0  0  0  0  0  0  0  0  0
   -0.7239   62.3450   78.5649 H   0  0  0  0  0  0  0  0  0  0  0  0
   -2.9230   63.4301   77.9129 H   0  0  0  0  0  0  0  0  0  0  0  0
   -2.4859   61.7386   75.3986 H   0  0  0  0  0  0  0  0  0  0  0  0
   -4.8692   63.3254   76.5718 H   0  0  0  0  0  0  0  0  0  0  0  0
   -4.6842   62.6774   74.8748 H   0  0  0  0  0  0  0  0  0  0  0  0
   -5.1413   60.9836   77.3597 H   0  0  0  0  0  0  0  0  0  0  0  0
   -3.5277   59.9576   77.6081 H   0  0  0  0  0  0  0  0  0  0  0  0
   -4.2994   58.3342   77.5358 H   0  0  0  0  0  0  0  0  0  0  0  0
   -2.2425   57.4376   76.4402 H   0  0  0  0  0  0  0  0  0  0  0  0
   -2.0319   56.7912   78.5012 H   0  0  0  0  0  0  0  0  0  0  0  0
   -0.0001   57.2483   79.6033 H   0  0  0  0  0  0  0  0  0  0  0  0
   -7.3430   61.6133   77.0828 H   0  0  0  0  0  0  0  0  0  0  0  0
   -6.9678   62.4561   75.5415 H   0  0  0  0  0  0  0  0  0  0  0  0
   -7.3038   60.6915   75.5415 H   0  0  0  0  0  0  0  0  0  0  0  0
   -0.7618   59.7260   77.2335 H   0  0  0  0  0  0  0  0  0  0  0  0
    2.6572   60.8160   76.0892 H   0  0  0  0  0  0  0  0  0  0  0  0
   -2.6462   58.1821   81.5240 H   0  0  0  0  0  0  0  0  0  0  0  0
   -3.9949   57.6535   80.4618 H   0  0  0  0  0  0  0  0  0  0  0  0
   -2.4436   56.7478   80.4618 H   0  0  0  0  0  0  0  0  0  0  0  0
    1.2676   60.3560   80.7346 H   0  0  0  0  0  0  0  0  0  0  0  0
    0.1849   58.9743   81.1837 H   0  0  0  0  0  0  0  0  0  0  0  0
    1.9895   57.3328   80.5070 H   0  0  0  0  0  0  0  0  0  0  0  0
  2  1  1  0
  3  2  1  0
  4  3  1  0
  5  3  1  0
  6  5  1  0
  7  6  1  0
  7  1  1  0
  8  6  1  0
  9  8  1  0
 10  8  1  0
 11  7  1  0
 12  5  1  0
 13 12  1  0
 14 13  1  0
 15 14  1  0
 16 15  1  0
 17 15  1  0
 18 17  1  0
 19 13  1  0
 19 18  1  0
 20 18  1  0
 18 21  1  6
 22 17  1  0
 23 22  1  0
 24 23  2  0
 25 23  1  0
 26 25  1  0
 27 26  1  0
 28 26  1  0
 29  1  1  0
 31 30  1  0
 32 31  1  0
 33 32  1  0
 34 32  1  0
 35 34  1  0
 36 35  2  0
 37 36  1  0
 38 37  2  0
 39 38  1  0
 40 39  1  0
 41 40  1  0
 42 41  1  0
 43 42  2  0
 44 42  1  0
 45 44  1  0
 46 45  1  0
 47 46  1  0
 47 30  1  0
 47 29  1  0
 48 40  1  0
 49 45  1  0
 50 34  1  0
 51 46  1  0
 52 51  1  0
 53 30  1  0
 55 54  2  0
 55 53  1  0
  1 56  1  1
  3 57  1  6
  4 58  1  0
  4 59  1  0
  4 60  1  0
  5 61  1  1
  6 62  1  6
  7 63  1  6
  8 64  1  0
  9 65  1  0
  9 66  1  0
  9 67  1  0
 10 68  1  0
 10 69  1  0
 10 70  1  0
 11 71  1  0
 13 72  1  1
 15 73  1  6
 16 74  1  0
 16 75  1  0
 16 76  1  0
 17 77  1  1
 19 78  1  0
 19 79  1  0
 20 80  1  0
 20 81  1  0
 20 82  1  0
 21 83  1  0
 25 84  1  0
 25 85  1  0
 26 86  1  0
 27 87  1  0
 27 88  1  0
 27 89  1  0
 28 90  1  0
 28 91  1  0
 28 92  1  0
 30 93  1  1
 31 94  1  0
 31 95  1  0
 32 96  1  1
 33 97  1  0
 33 98  1  0
 33 99  1  0
 34100  1  1
 35101  1  0
 36102  1  0
 37103  1  0
 38104  1  0
 39105  1  0
 39106  1  0
 40107  1  1
 44108  1  0
 44109  1  0
 45110  1  6
 46111  1  6
 47112  1  1
 48113  1  0
 48114  1  0
 48115  1  0
 49116  1  0
 50117  1  0
 52118  1  0
 52119  1  0
 52120  1  0
 53121  1  0
 53122  1  0
 55123  1  0
M  CHG  1   8   1
M  END
>  <score>  (4) 
-6.376

$$$$
=
     RDKit          3D

123125  0  0  0  0  0  0  0  0999 V2000
    0.1950   58.2440   77.7210 C   0  0  2  0  0  0  0  0  0  0  0  0
   -0.2660   57.0640   77.0700 O   0  0  0  0  0  0  0  0  0  0  0  0
   -1.6880   56.8990   76.9790 C   0  0  2  0  0  0  0  0  0  0  0  0
   -2.0270   56.5890   75.5240 C   0  0  0  0  0  0  0  0  0  0  0  0
   -2.5170   58.0790   77.5300 C   0  0  2  0  0  0  0  0  0  0  0  0
   -2.0270   58.3560   78.9670 C   0  0  1  0  0  0  0  0  0  0  0  0
   -0.4850   58.3880   79.0960 C   0  0  1  0  0  0  0  0  0  0  0  0
   -2.7110   59.6070   79.5540 N   0  0  0  0  0  4  0  0  0  0  0  0
   -1.8110   60.7680   79.8830 C   0  0  0  0  0  0  0  0  0  0  0  0
   -3.6400   59.2780   80.6830 C   0  0  0  0  0  0  0  0  0  0  0  0
   -0.0760   57.3460   79.9990 O   0  0  0  0  0  0  0  0  0  0  0  0
   -3.9120   57.7240   77.5470 O   0  0  0  0  0  0  0  0  0  0  0  0
   -4.7140   58.5770   76.7280 C   0  0  2  0  0  0  0  0  0  0  0  0
   -5.2230   57.8000   75.6360 O   0  0  0  0  0  0  0  0  0  0  0  0
   -5.6210   58.5830   74.4860 C   0  0  1  0  0  0  0  0  0  0  0  0
   -6.7350   57.8190   73.7820 C   0  0  0  0  0  0  0  0  0  0  0  0
   -6.0010   60.0250   74.8780 C   0  0  1  0  0  0  0  0  0  0  0  0
   -4.7170   60.7210   75.4040 C   0  0  2  0  0  0  0  0  0  0  0  0
   -3.8640   59.7440   76.2390 C   0  0  0  0  0  0  0  0  0  0  0  0
   -5.0720   61.9790   76.2010 C   0  0  0  0  0  0  0  0  0  0  0  0
   -3.9050   61.1380   74.2960 O   0  0  0  0  0  0  0  0  0  0  0  0
   -6.5340   60.7810   73.7740 O   0  0  0  0  0  0  0  0  0  0  0  0
   -7.8230   61.2160   73.9100 C   0  0  0  0  0  0  0  0  0  0  0  0
   -8.5420   60.9520   74.8640 O   0  0  0  0  0  0  0  0  0  0  0  0
   -8.1920   62.0710   72.7170 C   0  0  0  0  0  0  0  0  0  0  0  0
   -8.6250   63.5120   73.0280 C   0  0  0  0  0  0  0  0  0  0  0  0
   -8.6310   64.4100   71.7910 C   0  0  0  0  0  0  0  0  0  0  0  0
   -7.8090   64.1390   74.1600 C   0  0  0  0  0  0  0  0  0  0  0  0
   -0.1010   59.3990   76.9500 O   0  0  0  0  0  0  0  0  0  0  0  0
    2.2440   60.2170   76.7990 C   0  0  1  0  0  0  0  0  0  0  0  0
    2.4390   58.8180   76.1580 C   0  0  0  0  0  0  0  0  0  0  0  0
    3.8390   58.5570   75.5280 C   0  0  1  0  0  0  0  0  0  0  0  0
    4.4840   57.3490   76.2310 C   0  0  0  0  0  0  0  0  0  0  0  0
    3.7800   58.2750   73.9980 C   0  0  2  0  0  0  0  0  0  0  0  0
    3.4310   59.4270   73.0890 C   0  0  0  0  0  0  0  0  0  0  0  0
    3.6740   60.7270   73.3240 C   0  0  0  0  0  0  0  0  0  0  0  0
    3.3650   61.8310   72.4410 C   0  0  0  0  0  0  0  0  0  0  0  0
    2.2490   61.9430   71.7050 C   0  0  0  0  0  0  0  0  0  0  0  0
    1.8880   63.1650   70.8990 C   0  0  0  0  0  0  0  0  0  0  0  0
    0.8320   64.0610   71.5850 C   0  0  2  0  0  0  0  0  0  0  0  0
   -0.4280   63.3520   71.7000 O   0  0  0  0  0  0  0  0  0  0  0  0
   -0.7430   62.5350   72.7280 C   0  0  0  0  0  0  0  0  0  0  0  0
   -1.5390   61.6110   72.5620 O   0  0  0  0  0  0  0  0  0  0  0  0
   -0.1120   62.7940   74.0770 C   0  0  0  0  0  0  0  0  0  0  0  0
   -0.2710   61.5570   74.9750 C   0  0  2  0  0  0  0  0  0  0  0  0
    0.1730   61.8010   76.4520 C   0  0  1  0  0  0  0  0  0  0  0  0
    0.7400   60.5380   77.1900 C   0  0  1  0  0  0  0  0  0  0  0  0
    0.5520   65.2900   70.7220 C   0  0  0  0  0  0  0  0  0  0  0  0
    0.4450   60.4680   74.3880 O   0  0  0  0  0  0  0  0  0  0  0  0
    2.8140   57.2430   73.7600 O   0  0  0  0  0  0  0  0  0  0  0  0
    1.1210   62.8790   76.5300 O   0  0  0  0  0  0  0  0  0  0  0  0
    0.8910   63.7360   77.6460 C   0  0  0  0  0  0  0  0  0  0  0  0
    3.1460   60.3390   78.0460 C   0  0  0  0  0  0  0  0  0  0  0  0
    2.9200   61.1750   80.2860 O   0  0  0  0  0  0  0  0  0  0  0  0
    2.3760   60.8340   79.2410 C   0  0  0  0  0  0  0  0  0  0  0  0
    1.2849   58.1562   77.8415 H   0  0  0  0  0  0  0  0  0  0  0  0
   -1.9743   56.0650   77.6367 H   0  0  0  0  0  0  0  0  0  0  0  0
   -2.8383   55.8471   75.4866 H   0  0  0  0  0  0  0  0  0  0  0  0
   -2.3497   57.5110   75.0182 H   0  0  0  0  0  0  0  0  0  0  0  0
   -1.1375   56.1854   75.0182 H   0  0  0  0  0  0  0  0  0  0  0  0
   -2.3939   58.9725   76.9003 H   0  0  0  0  0  0  0  0  0  0  0  0
   -2.3364   57.4976   79.5814 H   0  0  0  0  0  0  0  0  0  0  0  0
   -0.1709   59.3617   79.5000 H   0  0  0  0  0  0  0  0  0  0  0  0
   -3.2741   59.9538   78.7643 H   0  0  0  0  0  0  0  0  0  0  0  0
   -1.7307   60.8716   80.9752 H   0  0  0  0  0  0  0  0  0  0  0  0
   -0.8125   60.5901   79.4571 H   0  0  0  0  0  0  0  0  0  0  0  0
   -2.2322   61.6906   79.4571 H   0  0  0  0  0  0  0  0  0  0  0  0
   -3.1308   59.4583   81.6412 H   0  0  0  0  0  0  0  0  0  0  0  0
   -4.5354   59.9137   80.6182 H   0  0  0  0  0  0  0  0  0  0  0  0
   -3.9357   58.2205   80.6182 H   0  0  0  0  0  0  0  0  0  0  0  0
   -0.1963   57.6524   80.9327 H   0  0  0  0  0  0  0  0  0  0  0  0
   -5.5618   58.9914   77.2933 H   0  0  0  0  0  0  0  0  0  0  0  0
   -4.7824   58.7112   73.7858 H   0  0  0  0  0  0  0  0  0  0  0  0
   -7.3984   57.3640   74.5322 H   0  0  0  0  0  0  0  0  0  0  0  0
   -7.3135   58.5113   73.1527 H   0  0  0  0  0  0  0  0  0  0  0  0
   -6.2975   57.0299   73.1527 H   0  0  0  0  0  0  0  0  0  0  0  0
   -6.7903   59.9823   75.6430 H   0  0  0  0  0  0  0  0  0  0  0  0
   -3.4478   60.2772   77.1065 H   0  0  0  0  0  0  0  0  0  0  0  0
   -3.0516   59.3529   75.6088 H   0  0  0  0  0  0  0  0  0  0  0  0
   -5.0104   61.7607   77.2774 H   0  0  0  0  0  0  0  0  0  0  0  0
   -4.3660   62.7840   75.9491 H   0  0  0  0  0  0  0  0  0  0  0  0
   -6.0947   62.2962   75.9491 H   0  0  0  0  0  0  0  0  0  0  0  0
   -3.0775   61.5630   74.6348 H   0  0  0  0  0  0  0  0  0  0  0  0
   -7.3159   62.1188   72.0536 H   0  0  0  0  0  0  0  0  0  0  0  0
   -9.0720   61.5879   72.2673 H   0  0  0  0  0  0  0  0  0  0  0  0
   -9.6655   63.4358   73.3765 H   0  0  0  0  0  0  0  0  0  0  0  0
   -8.6380   65.4646   72.1036 H   0  0  0  0  0  0  0  0  0  0  0  0
   -7.7315   64.2118   71.1896 H   0  0  0  0  0  0  0  0  0  0  0  0
   -9.5278   64.1998   71.1896 H   0  0  0  0  0  0  0  0  0  0  0  0
   -8.2219   63.8217   75.1289 H   0  0  0  0  0  0  0  0  0  0  0  0
   -6.7619   63.8109   74.0825 H   0  0  0  0  0  0  0  0  0  0  0  0
   -7.8564   65.2352   74.0825 H   0  0  0  0  0  0  0  0  0  0  0  0
    2.5274   60.9564   76.0354 H   0  0  0  0  0  0  0  0  0  0  0  0
    2.2728   58.0615   76.9391 H   0  0  0  0  0  0  0  0  0  0  0  0
    1.7199   58.7642   75.3273 H   0  0  0  0  0  0  0  0  0  0  0  0
    4.4329   59.4724   75.6673 H   0  0  0  0  0  0  0  0  0  0  0  0
    4.4146   57.4791   77.3211 H   0  0  0  0  0  0  0  0  0  0  0  0
    3.9569   56.4293   75.9371 H   0  0  0  0  0  0  0  0  0  0  0  0
    5.5415   57.2754   75.9371 H   0  0  0  0  0  0  0  0  0  0  0  0
    4.8156   58.0064   73.7424 H   0  0  0  0  0  0  0  0  0  0  0  0
    2.9290   59.1785   72.1423 H   0  0  0  0  0  0  0  0  0  0  0  0
    4.1549   60.9768   74.2813 H   0  0  0  0  0  0  0  0  0  0  0  0
    4.1037   62.6427   72.3674 H   0  0  0  0  0  0  0  0  0  0  0  0
    1.5542   61.0904   71.6885 H   0  0  0  0  0  0  0  0  0  0  0  0
    2.7996   63.7596   70.7395 H   0  0  0  0  0  0  0  0  0  0  0  0
    1.4510   62.8132   69.9528 H   0  0  0  0  0  0  0  0  0  0  0  0
    1.2242   64.3419   72.5736 H   0  0  0  0  0  0  0  0  0  0  0  0
    0.9577   63.0126   73.9434 H   0  0  0  0  0  0  0  0  0  0  0  0
   -0.6105   63.6523   74.5512 H   0  0  0  0  0  0  0  0  0  0  0  0
   -1.3428   61.3166   75.0342 H   0  0  0  0  0  0  0  0  0  0  0  0
   -0.7535   62.0670   76.9819 H   0  0  0  0  0  0  0  0  0  0  0  0
    0.7391   60.7696   78.2653 H   0  0  0  0  0  0  0  0  0  0  0  0
    0.3546   66.1562   71.3706 H   0  0  0  0  0  0  0  0  0  0  0  0
    1.4256   65.4989   70.0870 H   0  0  0  0  0  0  0  0  0  0  0  0
   -0.3258   65.0999   70.0870 H   0  0  0  0  0  0  0  0  0  0  0  0
    0.8209   59.8963   75.1035 H   0  0  0  0  0  0  0  0  0  0  0  0
    2.4857   56.8923   74.6256 H   0  0  0  0  0  0  0  0  0  0  0  0
    1.0423   63.1724   78.5784 H   0  0  0  0  0  0  0  0  0  0  0  0
    1.5941   64.5812   77.6103 H   0  0  0  0  0  0  0  0  0  0  0  0
   -0.1408   64.1156   77.6103 H   0  0  0  0  0  0  0  0  0  0  0  0
    3.5692   59.3506   78.2785 H   0  0  0  0  0  0  0  0  0  0  0  0
    3.9421   61.0652   77.8249 H   0  0  0  0  0  0  0  0  0  0  0  0
    1.2796   60.8923   79.1742 H   0  0  0  0  0  0  0  0  0  0  0  0
  2  1  1  0
  3  2  1  0
  4  3  1  0
  5  3  1  0
  6  5  1  0
  7  6  1  0
  7  1  1  0
  8  6  1  0
  9  8  1  0
 10  8  1  0
 11  7  1  0
 12  5  1  0
 13 12  1  0
 14 13  1  0
 15 14  1  0
 16 15  1  0
 17 15  1  0
 18 17  1  0
 19 13  1  0
 19 18  1  0
 20 18  1  0
 18 21  1  6
 22 17  1  0
 23 22  1  0
 24 23  2  0
 25 23  1  0
 26 25  1  0
 27 26  1  0
 28 26  1  0
 29  1  1  0
 31 30  1  0
 32 31  1  0
 33 32  1  0
 34 32  1  0
 35 34  1  0
 36 35  2  0
 37 36  1  0
 38 37  2  0
 39 38  1  0
 40 39  1  0
 41 40  1  0
 42 41  1  0
 43 42  2  0
 44 42  1  0
 45 44  1  0
 46 45  1  0
 47 46  1  0
 47 30  1  0
 47 29  1  0
 48 40  1  0
 49 45  1  0
 50 34  1  0
 51 46  1  0
 52 51  1  0
 53 30  1  0
 55 54  2  0
 55 53  1  0
  1 56  1  1
  3 57  1  1
  4 58  1  0
  4 59  1  0
  4 60  1  0
  5 61  1  6
  6 62  1  1
  7 63  1  1
  8 64  1  0
  9 65  1  0
  9 66  1  0
  9 67  1  0
 10 68  1  0
 10 69  1  0
 10 70  1  0
 11 71  1  0
 13 72  1  1
 15 73  1  6
 16 74  1  0
 16 75  1  0
 16 76  1  0
 17 77  1  1
 19 78  1  0
 19 79  1  0
 20 80  1  0
 20 81  1  0
 20 82  1  0
 21 83  1  0
 25 84  1  0
 25 85  1  0
 26 86  1  0
 27 87  1  0
 27 88  1  0
 27 89  1  0
 28 90  1  0
 28 91  1  0
 28 92  1  0
 30 93  1  6
 31 94  1  0
 31 95  1  0
 32 96  1  6
 33 97  1  0
 33 98  1  0
 33 99  1  0
 34100  1  6
 35101  1  0
 36102  1  0
 37103  1  0
 38104  1  0
 39105  1  0
 39106  1  0
 40107  1  1
 44108  1  0
 44109  1  0
 45110  1  1
 46111  1  1
 47112  1  1
 48113  1  0
 48114  1  0
 48115  1  0
 49116  1  0
 50117  1  0
 52118  1  0
 52119  1  0
 52120  1  0
 53121  1  0
 53122  1  0
 55123  1  0
M  CHG  1   8   1
M  END
>  <score>  (5) 
-6.236

$$$$
=
     RDKit          3D

123125  0  0  0  0  0  0  0  0999 V2000
   -1.4230   57.5900   77.8130 C   0  0  2  0  0  0  0  0  0  0  0  0
   -2.2230   56.6220   77.1410 O   0  0  0  0  0  0  0  0  0  0  0  0
   -3.5950   56.9720   76.9140 C   0  0  2  0  0  0  0  0  0  0  0  0
   -3.8990   56.7300   75.4380 C   0  0  0  0  0  0  0  0  0  0  0  0
   -3.9850   58.3980   77.3610 C   0  0  2  0  0  0  0  0  0  0  0  0
   -3.5500   58.5540   78.8340 C   0  0  1  0  0  0  0  0  0  0  0  0
   -2.1180   58.0380   79.1120 C   0  0  1  0  0  0  0  0  0  0  0  0
   -3.7830   59.9960   79.3290 N   0  0  0  0  0  4  0  0  0  0  0  0
   -2.5630   60.8720   79.4310 C   0  0  0  0  0  0  0  0  0  0  0  0
   -4.6190   60.0500   80.5720 C   0  0  0  0  0  0  0  0  0  0  0  0
   -2.1920   56.9670   80.0690 O   0  0  0  0  0  0  0  0  0  0  0  0
   -5.4100   58.5680   77.2480 O   0  0  0  0  0  0  0  0  0  0  0  0
   -5.7760   59.7870   76.6010 C   0  0  2  0  0  0  0  0  0  0  0  0
   -6.1560   60.7330   77.6100 O   0  0  0  0  0  0  0  0  0  0  0  0
   -7.0010   61.8050   77.1290 C   0  0  1  0  0  0  0  0  0  0  0  0
   -6.7290   63.0220   78.0040 C   0  0  0  0  0  0  0  0  0  0  0  0
   -6.8000   62.0600   75.6220 C   0  0  1  0  0  0  0  0  0  0  0  0
   -7.2950   60.7990   74.8630 C   0  0  2  0  0  0  0  0  0  0  0  0
   -6.9170   59.5140   75.6280 C   0  0  0  0  0  0  0  0  0  0  0  0
   -6.7510   60.7820   73.4320 C   0  0  0  0  0  0  0  0  0  0  0  0
   -8.7270   60.8220   74.7710 O   0  0  0  0  0  0  0  0  0  0  0  0
   -7.5240   63.2130   75.1500 O   0  0  0  0  0  0  0  0  0  0  0  0
   -6.7650   64.2840   74.7660 C   0  0  0  0  0  0  0  0  0  0  0  0
   -5.6090   64.4700   75.1190 O   0  0  0  0  0  0  0  0  0  0  0  0
   -7.5760   65.1670   73.8420 C   0  0  0  0  0  0  0  0  0  0  0  0
   -8.7550   64.4910   73.1250 C   0  0  0  0  0  0  0  0  0  0  0  0
   -8.6780   64.6220   71.6040 C   0  0  0  0  0  0  0  0  0  0  0  0
  -10.1110   64.9620   73.6520 C   0  0  0  0  0  0  0  0  0  0  0  0
   -1.2150   58.7320   76.9960 O   0  0  0  0  0  0  0  0  0  0  0  0
    1.2620   58.6460   76.7720 C   0  0  1  0  0  0  0  0  0  0  0  0
    0.9110   57.3180   76.0500 C   0  0  0  0  0  0  0  0  0  0  0  0
    2.0990   56.6050   75.3400 C   0  0  1  0  0  0  0  0  0  0  0  0
    2.2740   55.2020   75.9470 C   0  0  0  0  0  0  0  0  0  0  0  0
    1.9000   56.4650   73.8020 C   0  0  2  0  0  0  0  0  0  0  0  0
    1.9740   57.7220   72.9710 C   0  0  0  0  0  0  0  0  0  0  0  0
    2.6840   58.8260   73.2610 C   0  0  0  0  0  0  0  0  0  0  0  0
    2.7780   60.0220   72.4520 C   0  0  0  0  0  0  0  0  0  0  0  0
    1.7620   60.5820   71.7790 C   0  0  0  0  0  0  0  0  0  0  0  0
    1.8540   61.9020   71.0560 C   0  0  0  0  0  0  0  0  0  0  0  0
    1.2210   63.0740   71.8370 C   0  0  2  0  0  0  0  0  0  0  0  0
   -0.2080   62.8690   71.9780 O   0  0  0  0  0  0  0  0  0  0  0  0
   -0.7730   62.1570   72.9770 C   0  0  0  0  0  0  0  0  0  0  0  0
   -1.8570   61.6010   72.8040 O   0  0  0  0  0  0  0  0  0  0  0  0
   -0.0550   62.0790   74.3050 C   0  0  0  0  0  0  0  0  0  0  0  0
   -0.6340   60.9290   75.1450 C   0  0  2  0  0  0  0  0  0  0  0  0
   -0.0910   60.8960   76.6090 C   0  0  1  0  0  0  0  0  0  0  0  0
   -0.0080   59.4670   77.2520 C   0  0  1  0  0  0  0  0  0  0  0  0
    1.3890   64.3740   71.0540 C   0  0  0  0  0  0  0  0  0  0  0  0
   -0.3840   59.6950   74.4680 O   0  0  0  0  0  0  0  0  0  0  0  0
    0.6160   55.8760   73.5590 O   0  0  0  0  0  0  0  0  0  0  0  0
    1.1890   61.5450   76.6950 O   0  0  0  0  0  0  0  0  0  0  0  0
    1.2830   62.4310   77.8090 C   0  0  0  0  0  0  0  0  0  0  0  0
    2.1790   58.3470   77.9770 C   0  0  0  0  0  0  0  0  0  0  0  0
    3.7840   60.0520   78.5150 O   0  0  0  0  0  0  0  0  0  0  0  0
    3.5010   59.0570   77.8550 C   0  0  0  0  0  0  0  0  0  0  0  0
   -0.4529   57.1244   78.0412 H   0  0  0  0  0  0  0  0  0  0  0  0
   -4.2177   56.3300   77.5543 H   0  0  0  0  0  0  0  0  0  0  0  0
   -4.7567   56.0472   75.3474 H   0  0  0  0  0  0  0  0  0  0  0  0
   -4.1391   57.6869   74.9514 H   0  0  0  0  0  0  0  0  0  0  0  0
   -3.0203   56.2815   74.9514 H   0  0  0  0  0  0  0  0  0  0  0  0
   -3.4952   59.1550   76.7308 H   0  0  0  0  0  0  0  0  0  0  0  0
   -4.1982   57.8955   79.4308 H   0  0  0  0  0  0  0  0  0  0  0  0
   -1.5077   58.8534   79.5275 H   0  0  0  0  0  0  0  0  0  0  0  0
   -4.3220   60.4192   78.5600 H   0  0  0  0  0  0  0  0  0  0  0  0
   -2.3229   61.0444   80.4906 H   0  0  0  0  0  0  0  0  0  0  0  0
   -1.7135   60.3763   78.9385 H   0  0  0  0  0  0  0  0  0  0  0  0
   -2.7611   61.8354   78.9385 H   0  0  0  0  0  0  0  0  0  0  0  0
   -3.9653   60.0078   81.4557 H   0  0  0  0  0  0  0  0  0  0  0  0
   -5.1947   60.9872   80.5863 H   0  0  0  0  0  0  0  0  0  0  0  0
   -5.3105   59.1946   80.5863 H   0  0  0  0  0  0  0  0  0  0  0  0
   -2.1662   57.3409   80.9853 H   0  0  0  0  0  0  0  0  0  0  0  0
   -4.9352   60.2016   76.0255 H   0  0  0  0  0  0  0  0  0  0  0  0
   -8.0649   61.5386   77.2134 H   0  0  0  0  0  0  0  0  0  0  0  0
   -6.7935   62.7336   79.0636 H   0  0  0  0  0  0  0  0  0  0  0  0
   -5.7220   63.4097   77.7901 H   0  0  0  0  0  0  0  0  0  0  0  0
   -7.4751   63.8015   77.7901 H   0  0  0  0  0  0  0  0  0  0  0  0
   -5.7333   62.2588   75.4413 H   0  0  0  0  0  0  0  0  0  0  0  0
   -6.6024   58.7438   74.9084 H   0  0  0  0  0  0  0  0  0  0  0  0
   -7.7931   59.1678   76.1959 H   0  0  0  0  0  0  0  0  0  0  0  0
   -5.6518   60.7477   73.4580 H   0  0  0  0  0  0  0  0  0  0  0  0
   -7.1332   59.8954   72.9049 H   0  0  0  0  0  0  0  0  0  0  0  0
   -7.0771   61.6908   72.9049 H   0  0  0  0  0  0  0  0  0  0  0  0
   -9.1161   60.8282   75.6813 H   0  0  0  0  0  0  0  0  0  0  0  0
   -7.9778   65.9990   74.4389 H   0  0  0  0  0  0  0  0  0  0  0  0
   -6.8835   65.4767   73.0454 H   0  0  0  0  0  0  0  0  0  0  0  0
   -8.6662   63.4203   73.3611 H   0  0  0  0  0  0  0  0  0  0  0  0
   -8.1366   65.5431   71.3422 H   0  0  0  0  0  0  0  0  0  0  0  0
   -8.1467   63.7535   71.1876 H   0  0  0  0  0  0  0  0  0  0  0  0
   -9.6953   64.6637   71.1876 H   0  0  0  0  0  0  0  0  0  0  0  0
  -10.0985   64.9577   74.7519 H   0  0  0  0  0  0  0  0  0  0  0  0
  -10.3103   65.9820   73.2916 H   0  0  0  0  0  0  0  0  0  0  0  0
  -10.8997   64.2852   73.2916 H   0  0  0  0  0  0  0  0  0  0  0  0
    1.7774   59.2800   76.0356 H   0  0  0  0  0  0  0  0  0  0  0  0
    0.4982   56.6249   76.7978 H   0  0  0  0  0  0  0  0  0  0  0  0
    0.2013   57.5865   75.2536 H   0  0  0  0  0  0  0  0  0  0  0  0
    2.9910   57.2291   75.4974 H   0  0  0  0  0  0  0  0  0  0  0  0
    2.2651   55.2737   77.0446 H   0  0  0  0  0  0  0  0  0  0  0  0
    1.4498   54.5535   75.6152 H   0  0  0  0  0  0  0  0  0  0  0  0
    3.2323   54.7758   75.6152 H   0  0  0  0  0  0  0  0  0  0  0  0
    2.7574   55.8541   73.4831 H   0  0  0  0  0  0  0  0  0  0  0  0
    1.3910   57.7365   72.0383 H   0  0  0  0  0  0  0  0  0  0  0  0
    3.2484   58.8196   74.2051 H   0  0  0  0  0  0  0  0  0  0  0  0
    3.7610   60.5108   72.3835 H   0  0  0  0  0  0  0  0  0  0  0  0
    0.8023   60.0451   71.7529 H   0  0  0  0  0  0  0  0  0  0  0  0
    2.9158   62.1315   70.8827 H   0  0  0  0  0  0  0  0  0  0  0  0
    1.2926   61.7973   70.1158 H   0  0  0  0  0  0  0  0  0  0  0  0
    1.7162   63.1261   72.8178 H   0  0  0  0  0  0  0  0  0  0  0  0
    1.0163   61.9001   74.1307 H   0  0  0  0  0  0  0  0  0  0  0  0
   -0.1899   63.0270   74.8463 H   0  0  0  0  0  0  0  0  0  0  0  0
   -1.7171   61.0932   75.2445 H   0  0  0  0  0  0  0  0  0  0  0  0
   -0.8398   61.4468   77.1972 H   0  0  0  0  0  0  0  0  0  0  0  0
    0.1051   59.6114   78.3366 H   0  0  0  0  0  0  0  0  0  0  0  0
    1.4975   65.2136   71.7563 H   0  0  0  0  0  0  0  0  0  0  0  0
    2.2860   64.3074   70.4208 H   0  0  0  0  0  0  0  0  0  0  0  0
    0.5045   64.5376   70.4208 H   0  0  0  0  0  0  0  0  0  0  0  0
   -0.2385   58.9769   75.1338 H   0  0  0  0  0  0  0  0  0  0  0  0
    0.1766   55.6744   74.4229 H   0  0  0  0  0  0  0  0  0  0  0  0
    1.2217   61.8533   78.7431 H   0  0  0  0  0  0  0  0  0  0  0  0
    2.2430   62.9667   77.7715 H   0  0  0  0  0  0  0  0  0  0  0  0
    0.4568   63.1562   77.7715 H   0  0  0  0  0  0  0  0  0  0  0  0
    1.6784   58.6798   78.8982 H   0  0  0  0  0  0  0  0  0  0  0  0
    2.3705   57.2641   78.0042 H   0  0  0  0  0  0  0  0  0  0  0  0
    4.2446   58.6673   77.1442 H   0  0  0  0  0  0  0  0  0  0  0  0
  2  1  1  0
  3  2  1  0
  4  3  1  0
  5  3  1  0
  6  5  1  0
  7  6  1  0
  7  1  1  0
  8  6  1  0
  9  8  1  0
 10  8  1  0
 11  7  1  0
 12  5  1  0
 13 12  1  0
 14 13  1  0
 15 14  1  0
 16 15  1  0
 17 15  1  0
 18 17  1  0
 19 13  1  0
 19 18  1  0
 20 18  1  0
 18 21  1  6
 22 17  1  0
 23 22  1  0
 24 23  2  0
 25 23  1  0
 26 25  1  0
 27 26  1  0
 28 26  1  0
 29  1  1  0
 31 30  1  0
 32 31  1  0
 33 32  1  0
 34 32  1  0
 35 34  1  0
 36 35  2  0
 37 36  1  0
 38 37  2  0
 39 38  1  0
 40 39  1  0
 41 40  1  0
 42 41  1  0
 43 42  2  0
 44 42  1  0
 45 44  1  0
 46 45  1  0
 47 46  1  0
 47 30  1  0
 47 29  1  0
 48 40  1  0
 49 45  1  0
 50 34  1  0
 51 46  1  0
 52 51  1  0
 53 30  1  0
 55 54  2  0
 55 53  1  0
  1 56  1  1
  3 57  1  1
  4 58  1  0
  4 59  1  0
  4 60  1  0
  5 61  1  6
  6 62  1  1
  7 63  1  1
  8 64  1  0
  9 65  1  0
  9 66  1  0
  9 67  1  0
 10 68  1  0
 10 69  1  0
 10 70  1  0
 11 71  1  0
 13 72  1  6
 15 73  1  6
 16 74  1  0
 16 75  1  0
 16 76  1  0
 17 77  1  1
 19 78  1  0
 19 79  1  0
 20 80  1  0
 20 81  1  0
 20 82  1  0
 21 83  1  0
 25 84  1  0
 25 85  1  0
 26 86  1  0
 27 87  1  0
 27 88  1  0
 27 89  1  0
 28 90  1  0
 28 91  1  0
 28 92  1  0
 30 93  1  6
 31 94  1  0
 31 95  1  0
 32 96  1  6
 33 97  1  0
 33 98  1  0
 33 99  1  0
 34100  1  6
 35101  1  0
 36102  1  0
 37103  1  0
 38104  1  0
 39105  1  0
 39106  1  0
 40107  1  1
 44108  1  0
 44109  1  0
 45110  1  1
 46111  1  1
 47112  1  1
 48113  1  0
 48114  1  0
 48115  1  0
 49116  1  0
 50117  1  0
 52118  1  0
 52119  1  0
 52120  1  0
 53121  1  0
 53122  1  0
 55123  1  0
M  CHG  1   8   1
M  END
>  <score>  (6) 
-5.982

$$$$
=
     RDKit          3D

123125  0  0  0  0  0  0  0  0999 V2000
   -2.8210   61.1980   77.4010 C   0  0  2  0  0  0  0  0  0  0  0  0
   -2.8380   61.1460   78.8240 O   0  0  0  0  0  0  0  0  0  0  0  0
   -3.0580   59.8580   79.4140 C   0  0  2  0  0  0  0  0  0  0  0  0
   -1.9620   59.6290   80.4510 C   0  0  0  0  0  0  0  0  0  0  0  0
   -3.1600   58.6910   78.4090 C   0  0  2  0  0  0  0  0  0  0  0  0
   -4.2300   59.0740   77.3640 C   0  0  1  0  0  0  0  0  0  0  0  0
   -4.0830   60.5200   76.8330 C   0  0  1  0  0  0  0  0  0  0  0  0
   -4.3080   58.0200   76.2410 N   0  0  0  0  0  4  0  0  0  0  0  0
   -3.1690   58.0070   75.2570 C   0  0  0  0  0  0  0  0  0  0  0  0
   -5.6420   58.0070   75.5570 C   0  0  0  0  0  0  0  0  0  0  0  0
   -5.2730   61.2560   77.1650 O   0  0  0  0  0  0  0  0  0  0  0  0
   -3.5540   57.4900   79.0990 O   0  0  0  0  0  0  0  0  0  0  0  0
   -2.6900   56.3850   78.8320 C   0  0  2  0  0  0  0  0  0  0  0  0
   -3.3040   55.5690   77.8260 O   0  0  0  0  0  0  0  0  0  0  0  0
   -2.8300   54.2020   77.8000 C   0  0  1  0  0  0  0  0  0  0  0  0
   -2.9610   53.7050   76.3660 C   0  0  0  0  0  0  0  0  0  0  0  0
   -1.4060   54.0790   78.3780 C   0  0  1  0  0  0  0  0  0  0  0  0
   -1.4790   54.4420   79.8850 C   0  0  2  0  0  0  0  0  0  0  0  0
   -2.4610   55.6070   80.1230 C   0  0  0  0  0  0  0  0  0  0  0  0
   -0.0850   54.7610   80.4320 C   0  0  0  0  0  0  0  0  0  0  0  0
   -1.9770   53.3200   80.6280 O   0  0  0  0  0  0  0  0  0  0  0  0
   -0.8580   52.7540   78.2340 O   0  0  0  0  0  0  0  0  0  0  0  0
    0.3980   52.6780   77.7000 C   0  0  0  0  0  0  0  0  0  0  0  0
    1.4220   52.9670   78.3040 O   0  0  0  0  0  0  0  0  0  0  0  0
    0.3090   52.1730   76.2760 C   0  0  0  0  0  0  0  0  0  0  0  0
    0.4240   53.2380   75.1750 C   0  0  0  0  0  0  0  0  0  0  0  0
   -0.2780   52.8300   73.8790 C   0  0  0  0  0  0  0  0  0  0  0  0
    1.8710   53.6550   74.9100 C   0  0  0  0  0  0  0  0  0  0  0  0
   -1.6800   60.5330   76.8810 O   0  0  0  0  0  0  0  0  0  0  0  0
    0.7470   60.0550   77.1480 C   0  0  1  0  0  0  0  0  0  0  0  0
    0.2780   58.6520   76.6780 C   0  0  0  0  0  0  0  0  0  0  0  0
    1.4150   57.6320   76.3740 C   0  0  1  0  0  0  0  0  0  0  0  0
    1.2450   56.4080   77.2910 C   0  0  0  0  0  0  0  0  0  0  0  0
    1.4260   57.1510   74.8930 C   0  0  2  0  0  0  0  0  0  0  0  0
    1.8460   58.1450   73.8390 C   0  0  0  0  0  0  0  0  0  0  0  0
    2.6890   59.1780   74.0110 C   0  0  0  0  0  0  0  0  0  0  0  0
    3.1140   60.1170   72.9950 C   0  0  0  0  0  0  0  0  0  0  0  0
    2.3270   60.6300   72.0390 C   0  0  0  0  0  0  0  0  0  0  0  0
    2.7580   61.7090   71.0780 C   0  0  0  0  0  0  0  0  0  0  0  0
    2.2330   63.1120   71.4550 C   0  0  2  0  0  0  0  0  0  0  0  0
    0.7850   63.1460   71.3670 O   0  0  0  0  0  0  0  0  0  0  0  0
   -0.0400   62.7830   72.3730 C   0  0  0  0  0  0  0  0  0  0  0  0
   -1.1670   62.3560   72.1230 O   0  0  0  0  0  0  0  0  0  0  0  0
    0.4450   62.9320   73.7960 C   0  0  0  0  0  0  0  0  0  0  0  0
   -0.4480   62.1110   74.7410 C   0  0  2  0  0  0  0  0  0  0  0  0
   -0.1450   62.3610   76.2530 C   0  0  1  0  0  0  0  0  0  0  0  0
   -0.4140   61.1350   77.1930 C   0  0  1  0  0  0  0  0  0  0  0  0
    2.7440   64.1460   70.4550 C   0  0  0  0  0  0  0  0  0  0  0  0
   -0.3220   60.7280   74.4060 O   0  0  0  0  0  0  0  0  0  0  0  0
    0.1100   56.7030   74.5470 O   0  0  0  0  0  0  0  0  0  0  0  0
    1.2020   62.8300   76.4340 O   0  0  0  0  0  0  0  0  0  0  0  0
    1.3320   63.7150   77.5450 C   0  0  0  0  0  0  0  0  0  0  0  0
    1.4050   59.9350   78.5390 C   0  0  0  0  0  0  0  0  0  0  0  0
    3.7540   59.6670   78.1080 O   0  0  0  0  0  0  0  0  0  0  0  0
    2.8430   60.3830   78.5110 C   0  0  0  0  0  0  0  0  0  0  0  0
   -2.7908   62.2569   77.1048 H   0  0  0  0  0  0  0  0  0  0  0  0
   -4.0513   59.8676   79.8865 H   0  0  0  0  0  0  0  0  0  0  0  0
   -2.3885   59.7181   81.4610 H   0  0  0  0  0  0  0  0  0  0  0  0
   -1.5375   58.6228   80.3197 H   0  0  0  0  0  0  0  0  0  0  0  0
   -1.1701   60.3811   80.3197 H   0  0  0  0  0  0  0  0  0  0  0  0
   -2.1912   58.5079   77.9212 H   0  0  0  0  0  0  0  0  0  0  0  0
   -5.1999   59.0702   77.8829 H   0  0  0  0  0  0  0  0  0  0  0  0
   -3.9628   60.5000   75.7398 H   0  0  0  0  0  0  0  0  0  0  0  0
   -4.1979   57.1315   76.7502 H   0  0  0  0  0  0  0  0  0  0  0  0
   -2.2136   57.9961   75.8021 H   0  0  0  0  0  0  0  0  0  0  0  0
   -3.2408   57.1096   74.6249 H   0  0  0  0  0  0  0  0  0  0  0  0
   -3.2203   58.9058   74.6249 H   0  0  0  0  0  0  0  0  0  0  0  0
   -6.4414   57.9992   76.3126 H   0  0  0  0  0  0  0  0  0  0  0  0
   -5.7404   58.9042   74.9283 H   0  0  0  0  0  0  0  0  0  0  0  0
   -5.7229   57.1080   74.9283 H   0  0  0  0  0  0  0  0  0  0  0  0
   -5.3628   61.3115   78.1494 H   0  0  0  0  0  0  0  0  0  0  0  0
   -1.7105   56.7240   78.4638 H   0  0  0  0  0  0  0  0  0  0  0  0
   -3.4382   53.5598   78.4540 H   0  0  0  0  0  0  0  0  0  0  0  0
   -3.2414   52.6413   76.3708 H   0  0  0  0  0  0  0  0  0  0  0  0
   -3.7366   54.2863   75.8459 H   0  0  0  0  0  0  0  0  0  0  0  0
   -1.9996   53.8285   75.8459 H   0  0  0  0  0  0  0  0  0  0  0  0
   -0.7438   54.7584   77.8213 H   0  0  0  0  0  0  0  0  0  0  0  0
   -2.0432   56.2829   80.8836 H   0  0  0  0  0  0  0  0  0  0  0  0
   -3.4223   55.1972   80.4665 H   0  0  0  0  0  0  0  0  0  0  0  0
   -0.1123   54.7547   81.5316 H   0  0  0  0  0  0  0  0  0  0  0  0
    0.6298   54.0032   80.0787 H   0  0  0  0  0  0  0  0  0  0  0  0
    0.2291   55.7542   80.0787 H   0  0  0  0  0  0  0  0  0  0  0  0
   -1.8955   53.5037   81.5974 H   0  0  0  0  0  0  0  0  0  0  0  0
    1.1198   51.4450   76.1259 H   0  0  0  0  0  0  0  0  0  0  0  0
   -0.7011   51.7495   76.1743 H   0  0  0  0  0  0  0  0  0  0  0  0
   -0.1052   54.1199   75.5650 H   0  0  0  0  0  0  0  0  0  0  0  0
   -1.2061   52.2906   74.1189 H   0  0  0  0  0  0  0  0  0  0  0  0
   -0.5177   53.7295   73.2930 H   0  0  0  0  0  0  0  0  0  0  0  0
    0.3849   52.1765   73.2930 H   0  0  0  0  0  0  0  0  0  0  0  0
    2.3907   53.8048   75.8678 H   0  0  0  0  0  0  0  0  0  0  0  0
    2.3804   52.8671   74.3358 H   0  0  0  0  0  0  0  0  0  0  0  0
    1.8829   54.5931   74.3358 H   0  0  0  0  0  0  0  0  0  0  0  0
    1.4709   60.4133   76.4013 H   0  0  0  0  0  0  0  0  0  0  0  0
   -0.3580   58.2252   77.4675 H   0  0  0  0  0  0  0  0  0  0  0  0
   -0.2465   58.8126   75.7245 H   0  0  0  0  0  0  0  0  0  0  0  0
    2.3697   58.1467   76.5572 H   0  0  0  0  0  0  0  0  0  0  0  0
    1.2895   56.7285   78.3423 H   0  0  0  0  0  0  0  0  0  0  0  0
    0.2724   55.9338   77.0931 H   0  0  0  0  0  0  0  0  0  0  0  0
    2.0516   55.6867   77.0931 H   0  0  0  0  0  0  0  0  0  0  0  0
    2.1990   56.3685   74.8801 H   0  0  0  0  0  0  0  0  0  0  0  0
    1.4217   58.0118   72.8329 H   0  0  0  0  0  0  0  0  0  0  0  0
    3.0954   59.3238   75.0227 H   0  0  0  0  0  0  0  0  0  0  0  0
    4.1669   60.4350   73.0084 H   0  0  0  0  0  0  0  0  0  0  0  0
    1.3026   60.2394   71.9499 H   0  0  0  0  0  0  0  0  0  0  0  0
    3.8574   61.7413   71.0603 H   0  0  0  0  0  0  0  0  0  0  0  0
    2.3335   61.4568   70.0951 H   0  0  0  0  0  0  0  0  0  0  0  0
    2.5770   63.3328   72.4762 H   0  0  0  0  0  0  0  0  0  0  0  0
    1.4815   62.5708   73.8679 H   0  0  0  0  0  0  0  0  0  0  0  0
    0.4003   63.9924   74.0851 H   0  0  0  0  0  0  0  0  0  0  0  0
   -1.4874   62.4413   74.5979 H   0  0  0  0  0  0  0  0  0  0  0  0
   -0.8639   63.1356   76.5582 H   0  0  0  0  0  0  0  0  0  0  0  0
   -0.4407   61.5225   78.2221 H   0  0  0  0  0  0  0  0  0  0  0  0
    3.1677   65.0034   70.9984 H   0  0  0  0  0  0  0  0  0  0  0  0
    3.5214   63.6919   69.8230 H   0  0  0  0  0  0  0  0  0  0  0  0
    1.9111   64.4878   69.8230 H   0  0  0  0  0  0  0  0  0  0  0  0
   -0.2730   60.1906   75.2360 H   0  0  0  0  0  0  0  0  0  0  0  0
   -0.4065   56.5272   75.3730 H   0  0  0  0  0  0  0  0  0  0  0  0
    1.2480   63.1433   78.4810 H   0  0  0  0  0  0  0  0  0  0  0  0
    2.3127   64.2116   77.5054 H   0  0  0  0  0  0  0  0  0  0  0  0
    0.5355   64.4727   77.5054 H   0  0  0  0  0  0  0  0  0  0  0  0
    0.8494   60.5615   79.2523 H   0  0  0  0  0  0  0  0  0  0  0  0
    1.3791   58.8780   78.8426 H   0  0  0  0  0  0  0  0  0  0  0  0
    3.0865   61.3949   78.8670 H   0  0  0  0  0  0  0  0  0  0  0  0
  2  1  1  0
  3  2  1  0
  4  3  1  0
  5  3  1  0
  6  5  1  0
  7  6  1  0
  7  1  1  0
  8  6  1  0
  9  8  1  0
 10  8  1  0
 11  7  1  0
 12  5  1  0
 13 12  1  0
 14 13  1  0
 15 14  1  0
 16 15  1  0
 17 15  1  0
 18 17  1  0
 19 13  1  0
 19 18  1  0
 20 18  1  0
 18 21  1  1
 22 17  1  0
 23 22  1  0
 24 23  2  0
 25 23  1  0
 26 25  1  0
 27 26  1  0
 28 26  1  0
 29  1  1  0
 31 30  1  0
 32 31  1  0
 33 32  1  0
 34 32  1  0
 35 34  1  0
 36 35  2  0
 37 36  1  0
 38 37  2  0
 39 38  1  0
 40 39  1  0
 41 40  1  0
 42 41  1  0
 43 42  2  0
 44 42  1  0
 45 44  1  0
 46 45  1  0
 47 46  1  0
 47 30  1  0
 47 29  1  0
 48 40  1  0
 49 45  1  0
 50 34  1  0
 51 46  1  0
 52 51  1  0
 53 30  1  0
 55 54  2  0
 55 53  1  0
  1 56  1  1
  3 57  1  1
  4 58  1  0
  4 59  1  0
  4 60  1  0
  5 61  1  6
  6 62  1  1
  7 63  1  6
  8 64  1  0
  9 65  1  0
  9 66  1  0
  9 67  1  0
 10 68  1  0
 10 69  1  0
 10 70  1  0
 11 71  1  0
 13 72  1  6
 15 73  1  1
 16 74  1  0
 16 75  1  0
 16 76  1  0
 17 77  1  6
 19 78  1  0
 19 79  1  0
 20 80  1  0
 20 81  1  0
 20 82  1  0
 21 83  1  0
 25 84  1  0
 25 85  1  0
 26 86  1  0
 27 87  1  0
 27 88  1  0
 27 89  1  0
 28 90  1  0
 28 91  1  0
 28 92  1  0
 30 93  1  6
 31 94  1  0
 31 95  1  0
 32 96  1  1
 33 97  1  0
 33 98  1  0
 33 99  1  0
 34100  1  1
 35101  1  0
 36102  1  0
 37103  1  0
 38104  1  0
 39105  1  0
 39106  1  0
 40107  1  1
 44108  1  0
 44109  1  0
 45110  1  1
 46111  1  1
 47112  1  1
 48113  1  0
 48114  1  0
 48115  1  0
 49116  1  0
 50117  1  0
 52118  1  0
 52119  1  0
 52120  1  0
 53121  1  0
 53122  1  0
 55123  1  0
M  CHG  1   8   1
M  END
>  <score>  (7) 
-5.758

$$$$
=
     RDKit          3D

123125  0  0  0  0  0  0  0  0999 V2000
   -2.7730   56.2170   79.1720 C   0  0  2  0  0  0  0  0  0  0  0  0
   -1.6240   56.2200   80.0140 O   0  0  0  0  0  0  0  0  0  0  0  0
   -0.3580   56.0330   79.3680 C   0  0  2  0  0  0  0  0  0  0  0  0
    0.5730   57.1470   79.8380 C   0  0  0  0  0  0  0  0  0  0  0  0
   -0.4200   55.9400   77.8280 C   0  0  2  0  0  0  0  0  0  0  0  0
   -1.4530   54.8490   77.4730 C   0  0  1  0  0  0  0  0  0  0  0  0
   -2.7690   54.9610   78.2790 C   0  0  1  0  0  0  0  0  0  0  0  0
   -1.6790   54.7760   75.9490 N   0  0  0  0  0  4  0  0  0  0  0  0
   -2.3100   55.9830   75.3090 C   0  0  0  0  0  0  0  0  0  0  0  0
   -2.3480   53.5020   75.5280 C   0  0  0  0  0  0  0  0  0  0  0  0
   -2.9390   53.7610   79.0540 O   0  0  0  0  0  0  0  0  0  0  0  0
    0.8740   55.5790   77.3120 O   0  0  0  0  0  0  0  0  0  0  0  0
    1.4550   56.5990   76.4990 C   0  0  2  0  0  0  0  0  0  0  0  0
    1.2890   56.2260   75.1250 O   0  0  0  0  0  0  0  0  0  0  0  0
    2.2210   56.8640   74.2200 C   0  0  1  0  0  0  0  0  0  0  0  0
    1.5310   56.9820   72.8680 C   0  0  0  0  0  0  0  0  0  0  0  0
    2.7350   58.2060   74.7800 C   0  0  1  0  0  0  0  0  0  0  0  0
    3.5700   57.8940   76.0510 C   0  0  2  0  0  0  0  0  0  0  0  0
    2.9260   56.7530   76.8660 C   0  0  0  0  0  0  0  0  0  0  0  0
    3.7550   59.1550   76.8990 C   0  0  0  0  0  0  0  0  0  0  0  0
    4.8790   57.4450   75.6710 O   0  0  0  0  0  0  0  0  0  0  0  0
    3.5540   58.9260   73.8390 O   0  0  0  0  0  0  0  0  0  0  0  0
    3.1210   60.1780   73.5000 C   0  0  0  0  0  0  0  0  0  0  0  0
    2.9900   61.1000   74.2940 O   0  0  0  0  0  0  0  0  0  0  0  0
    2.8530   60.2310   72.0110 C   0  0  0  0  0  0  0  0  0  0  0  0
    4.0260   59.8360   71.1020 C   0  0  0  0  0  0  0  0  0  0  0  0
    5.2200   60.7830   71.2290 C   0  0  0  0  0  0  0  0  0  0  0  0
    3.6060   59.6710   69.6400 C   0  0  0  0  0  0  0  0  0  0  0  0
   -2.7940   57.3630   78.3360 O   0  0  0  0  0  0  0  0  0  0  0  0
   -2.5100   59.8320   78.2080 C   0  0  1  0  0  0  0  0  0  0  0  0
   -1.7800   59.4400   76.8960 C   0  0  0  0  0  0  0  0  0  0  0  0
   -1.3710   60.6270   75.9760 C   0  0  1  0  0  0  0  0  0  0  0  0
    0.1570   60.6110   75.7910 C   0  0  0  0  0  0  0  0  0  0  0  0
   -2.0460   60.5770   74.5730 C   0  0  2  0  0  0  0  0  0  0  0  0
   -3.5280   60.8500   74.5030 C   0  0  0  0  0  0  0  0  0  0  0  0
   -4.2350   61.6230   75.3450 C   0  0  0  0  0  0  0  0  0  0  0  0
   -5.6520   61.9070   75.2630 C   0  0  0  0  0  0  0  0  0  0  0  0
   -6.6000   61.0210   74.9240 C   0  0  0  0  0  0  0  0  0  0  0  0
   -8.0790   61.3060   74.9780 C   0  0  0  0  0  0  0  0  0  0  0  0
   -8.7750   60.7020   76.2190 C   0  0  2  0  0  0  0  0  0  0  0  0
   -8.7140   59.2540   76.1720 O   0  0  0  0  0  0  0  0  0  0  0  0
   -7.6790   58.5260   76.6440 C   0  0  0  0  0  0  0  0  0  0  0  0
   -7.4310   57.4210   76.1640 O   0  0  0  0  0  0  0  0  0  0  0  0
   -6.8540   59.0920   77.7770 C   0  0  0  0  0  0  0  0  0  0  0  0
   -5.5250   58.3290   77.8880 C   0  0  2  0  0  0  0  0  0  0  0  0
   -4.6940   58.7110   79.1540 C   0  0  1  0  0  0  0  0  0  0  0  0
   -3.1380   58.5980   78.9830 C   0  0  1  0  0  0  0  0  0  0  0  0
  -10.2580   61.0670   76.2140 C   0  0  0  0  0  0  0  0  0  0  0  0
   -4.7750   58.5360   76.6890 O   0  0  0  0  0  0  0  0  0  0  0  0
   -1.8300   59.2780   74.0080 O   0  0  0  0  0  0  0  0  0  0  0  0
   -5.0400   60.0280   79.6150 O   0  0  0  0  0  0  0  0  0  0  0  0
   -5.8790   60.0050   80.7680 C   0  0  0  0  0  0  0  0  0  0  0  0
   -1.5320   60.5880   79.1320 C   0  0  0  0  0  0  0  0  0  0  0  0
   -2.6550   62.2190   80.4940 O   0  0  0  0  0  0  0  0  0  0  0  0
   -2.0380   61.9670   79.4630 C   0  0  0  0  0  0  0  0  0  0  0  0
   -3.6626   56.2227   79.8189 H   0  0  0  0  0  0  0  0  0  0  0  0
    0.0283   55.0460   79.6625 H   0  0  0  0  0  0  0  0  0  0  0  0
    0.5919   57.1696   80.9376 H   0  0  0  0  0  0  0  0  0  0  0  0
    1.5883   56.9613   79.4576 H   0  0  0  0  0  0  0  0  0  0  0  0
    0.2100   58.1132   79.4576 H   0  0  0  0  0  0  0  0  0  0  0  0
   -0.7107   56.9054   77.3881 H   0  0  0  0  0  0  0  0  0  0  0  0
   -1.0216   53.8864   77.7850 H   0  0  0  0  0  0  0  0  0  0  0  0
   -3.6163   55.0673   77.5856 H   0  0  0  0  0  0  0  0  0  0  0  0
   -0.7201   54.7765   75.5729 H   0  0  0  0  0  0  0  0  0  0  0  0
   -2.6681   56.6680   76.0917 H   0  0  0  0  0  0  0  0  0  0  0  0
   -1.5656   56.4978   74.6837 H   0  0  0  0  0  0  0  0  0  0  0  0
   -3.1575   55.6656   74.6837 H   0  0  0  0  0  0  0  0  0  0  0  0
   -2.6470   52.9326   76.4204 H   0  0  0  0  0  0  0  0  0  0  0  0
   -3.2391   53.7369   74.9274 H   0  0  0  0  0  0  0  0  0  0  0  0
   -1.6487   52.9018   74.9274 H   0  0  0  0  0  0  0  0  0  0  0  0
   -2.9075   53.9836   80.0181 H   0  0  0  0  0  0  0  0  0  0  0  0
    0.9634   57.5692   76.6638 H   0  0  0  0  0  0  0  0  0  0  0  0
    3.1322   56.2595   74.1003 H   0  0  0  0  0  0  0  0  0  0  0  0
    0.4570   57.1657   73.0192 H   0  0  0  0  0  0  0  0  0  0  0  0
    1.9701   57.8181   72.3040 H   0  0  0  0  0  0  0  0  0  0  0  0
    1.6673   56.0475   72.3040 H   0  0  0  0  0  0  0  0  0  0  0  0
    1.8684   58.8462   75.0016 H   0  0  0  0  0  0  0  0  0  0  0  0
    3.0093   56.9826   77.9385 H   0  0  0  0  0  0  0  0  0  0  0  0
    3.4498   55.8131   76.6374 H   0  0  0  0  0  0  0  0  0  0  0  0
    3.7159   58.8886   77.9655 H   0  0  0  0  0  0  0  0  0  0  0  0
    4.7296   59.6109   76.6704 H   0  0  0  0  0  0  0  0  0  0  0  0
    2.9524   59.8716   76.6704 H   0  0  0  0  0  0  0  0  0  0  0  0
    5.4138   57.2616   76.4837 H   0  0  0  0  0  0  0  0  0  0  0  0
    2.0159   59.5508   71.7952 H   0  0  0  0  0  0  0  0  0  0  0  0
    2.6444   61.2870   71.7844 H   0  0  0  0  0  0  0  0  0  0  0  0
    4.3563   58.8504   71.4617 H   0  0  0  0  0  0  0  0  0  0  0  0
    5.4388   60.9565   72.2930 H   0  0  0  0  0  0  0  0  0  0  0  0
    6.0981   60.3331   70.7427 H   0  0  0  0  0  0  0  0  0  0  0  0
    4.9819   61.7405   70.7427 H   0  0  0  0  0  0  0  0  0  0  0  0
    2.5830   59.2691   69.5955 H   0  0  0  0  0  0  0  0  0  0  0  0
    3.6381   60.6486   69.1367 H   0  0  0  0  0  0  0  0  0  0  0  0
    4.2949   58.9767   69.1367 H   0  0  0  0  0  0  0  0  0  0  0  0
   -3.3540   60.4760   77.9201 H   0  0  0  0  0  0  0  0  0  0  0  0
   -0.8661   58.8914   77.1677 H   0  0  0  0  0  0  0  0  0  0  0  0
   -2.5000   58.8433   76.3167 H   0  0  0  0  0  0  0  0  0  0  0  0
   -1.7110   61.5499   76.4686 H   0  0  0  0  0  0  0  0  0  0  0  0
    0.6456   60.6059   76.7765 H   0  0  0  0  0  0  0  0  0  0  0  0
    0.4493   59.7097   75.2321 H   0  0  0  0  0  0  0  0  0  0  0  0
    0.4681   61.5059   75.2321 H   0  0  0  0  0  0  0  0  0  0  0  0
   -1.5711   61.4038   74.0246 H   0  0  0  0  0  0  0  0  0  0  0  0
   -4.0836   60.3701   73.6838 H   0  0  0  0  0  0  0  0  0  0  0  0
   -3.6833   62.0846   76.1772 H   0  0  0  0  0  0  0  0  0  0  0  0
   -5.9772   62.9313   75.4975 H   0  0  0  0  0  0  0  0  0  0  0  0
   -6.2783   60.0250   74.5857 H   0  0  0  0  0  0  0  0  0  0  0  0
   -8.2238   62.3963   74.9930 H   0  0  0  0  0  0  0  0  0  0  0  0
   -8.5326   60.8388   74.0914 H   0  0  0  0  0  0  0  0  0  0  0  0
   -8.2656   61.0945   77.1114 H   0  0  0  0  0  0  0  0  0  0  0  0
   -6.6491   60.1552   77.5832 H   0  0  0  0  0  0  0  0  0  0  0  0
   -7.4119   58.9866   78.7191 H   0  0  0  0  0  0  0  0  0  0  0  0
   -5.7564   57.2605   78.0092 H   0  0  0  0  0  0  0  0  0  0  0  0
   -4.9689   57.9575   79.9067 H   0  0  0  0  0  0  0  0  0  0  0  0
   -2.7043   58.6106   79.9938 H   0  0  0  0  0  0  0  0  0  0  0  0
  -10.6173   61.1554   77.2499 H   0  0  0  0  0  0  0  0  0  0  0  0
  -10.3977   62.0263   75.6943 H   0  0  0  0  0  0  0  0  0  0  0  0
  -10.8270   60.2821   75.6943 H   0  0  0  0  0  0  0  0  0  0  0  0
   -3.8471   58.7921   76.9203 H   0  0  0  0  0  0  0  0  0  0  0  0
   -1.7199   58.6158   74.7356 H   0  0  0  0  0  0  0  0  0  0  0  0
   -5.2566   60.0221   81.6748 H   0  0  0  0  0  0  0  0  0  0  0  0
   -6.5384   60.8854   80.7593 H   0  0  0  0  0  0  0  0  0  0  0  0
   -6.4892   59.0898   80.7593 H   0  0  0  0  0  0  0  0  0  0  0  0
   -1.4100   60.0187   80.0653 H   0  0  0  0  0  0  0  0  0  0  0  0
   -0.5710   60.6904   78.6066 H   0  0  0  0  0  0  0  0  0  0  0  0
   -1.8467   62.7832   78.7508 H   0  0  0  0  0  0  0  0  0  0  0  0
  2  1  1  0
  3  2  1  0
  4  3  1  0
  5  3  1  0
  6  5  1  0
  7  6  1  0
  7  1  1  0
  8  6  1  0
  9  8  1  0
 10  8  1  0
 11  7  1  0
 12  5  1  0
 13 12  1  0
 14 13  1  0
 15 14  1  0
 16 15  1  0
 17 15  1  0
 18 17  1  0
 19 13  1  0
 19 18  1  0
 20 18  1  0
 18 21  1  6
 22 17  1  0
 23 22  1  0
 24 23  2  0
 25 23  1  0
 26 25  1  0
 27 26  1  0
 28 26  1  0
 29  1  1  0
 31 30  1  0
 32 31  1  0
 33 32  1  0
 34 32  1  0
 35 34  1  0
 36 35  2  0
 37 36  1  0
 38 37  2  0
 39 38  1  0
 40 39  1  0
 41 40  1  0
 42 41  1  0
 43 42  2  0
 44 42  1  0
 45 44  1  0
 46 45  1  0
 47 46  1  0
 47 30  1  0
 47 29  1  0
 48 40  1  0
 49 45  1  0
 50 34  1  0
 51 46  1  0
 52 51  1  0
 53 30  1  0
 55 54  2  0
 55 53  1  0
  1 56  1  1
  3 57  1  1
  4 58  1  0
  4 59  1  0
  4 60  1  0
  5 61  1  6
  6 62  1  1
  7 63  1  6
  8 64  1  0
  9 65  1  0
  9 66  1  0
  9 67  1  0
 10 68  1  0
 10 69  1  0
 10 70  1  0
 11 71  1  0
 13 72  1  6
 15 73  1  6
 16 74  1  0
 16 75  1  0
 16 76  1  0
 17 77  1  1
 19 78  1  0
 19 79  1  0
 20 80  1  0
 20 81  1  0
 20 82  1  0
 21 83  1  0
 25 84  1  0
 25 85  1  0
 26 86  1  0
 27 87  1  0
 27 88  1  0
 27 89  1  0
 28 90  1  0
 28 91  1  0
 28 92  1  0
 30 93  1  6
 31 94  1  0
 31 95  1  0
 32 96  1  1
 33 97  1  0
 33 98  1  0
 33 99  1  0
 34100  1  6
 35101  1  0
 36102  1  0
 37103  1  0
 38104  1  0
 39105  1  0
 39106  1  0
 40107  1  1
 44108  1  0
 44109  1  0
 45110  1  1
 46111  1  1
 47112  1  1
 48113  1  0
 48114  1  0
 48115  1  0
 49116  1  0
 50117  1  0
 52118  1  0
 52119  1  0
 52120  1  0
 53121  1  0
 53122  1  0
 55123  1  0
M  CHG  1   8   1
M  END
>  <score>  (8) 
-5.649

$$$$
=
     RDKit          3D

123125  0  0  0  0  0  0  0  0999 V2000
   -1.7890   59.4490   77.8850 C   0  0  2  0  0  0  0  0  0  0  0  0
   -2.6680   58.3430   78.0650 O   0  0  0  0  0  0  0  0  0  0  0  0
   -3.6860   58.1660   77.0700 C   0  0  2  0  0  0  0  0  0  0  0  0
   -3.6280   56.7150   76.5990 C   0  0  0  0  0  0  0  0  0  0  0  0
   -3.6240   59.1620   75.8920 C   0  0  2  0  0  0  0  0  0  0  0  0
   -3.5970   60.5840   76.4920 C   0  0  1  0  0  0  0  0  0  0  0  0
   -2.6030   60.7390   77.6670 C   0  0  1  0  0  0  0  0  0  0  0  0
   -3.4040   61.6460   75.3890 N   0  0  0  0  0  4  0  0  0  0  0  0
   -2.8430   61.1550   74.0810 C   0  0  0  0  0  0  0  0  0  0  0  0
   -2.6880   62.8660   75.8860 C   0  0  0  0  0  0  0  0  0  0  0  0
   -3.3380   61.1050   78.8480 O   0  0  0  0  0  0  0  0  0  0  0  0
   -4.7870   59.0010   75.0600 O   0  0  0  0  0  0  0  0  0  0  0  0
   -5.8810   59.8260   75.4630 C   0  0  2  0  0  0  0  0  0  0  0  0
   -6.7950   59.0210   76.2200 O   0  0  0  0  0  0  0  0  0  0  0  0
   -8.1420   59.5450   76.2730 C   0  0  1  0  0  0  0  0  0  0  0  0
   -8.7570   59.0810   77.5870 C   0  0  0  0  0  0  0  0  0  0  0  0
   -8.1710   61.0740   76.0740 C   0  0  1  0  0  0  0  0  0  0  0  0
   -7.6910   61.3670   74.6280 C   0  0  2  0  0  0  0  0  0  0  0  0
   -6.5440   60.4170   74.2250 C   0  0  0  0  0  0  0  0  0  0  0  0
   -7.2820   62.8350   74.4810 C   0  0  0  0  0  0  0  0  0  0  0  0
   -8.7660   61.1350   73.7060 O   0  0  0  0  0  0  0  0  0  0  0  0
   -9.4830   61.6370   76.2630 O   0  0  0  0  0  0  0  0  0  0  0  0
   -9.5440   62.7870   77.0000 C   0  0  0  0  0  0  0  0  0  0  0  0
  -10.3520   63.6850   76.8100 O   0  0  0  0  0  0  0  0  0  0  0  0
   -8.4770   62.7520   78.0740 C   0  0  0  0  0  0  0  0  0  0  0  0
   -7.4900   63.9300   78.0820 C   0  0  0  0  0  0  0  0  0  0  0  0
   -6.0320   63.4820   77.9860 C   0  0  0  0  0  0  0  0  0  0  0  0
   -7.7030   64.8650   79.2730 C   0  0  0  0  0  0  0  0  0  0  0  0
   -0.9480   59.2520   76.7580 O   0  0  0  0  0  0  0  0  0  0  0  0
    1.1290   57.9020   76.5240 C   0  0  1  0  0  0  0  0  0  0  0  0
    0.1490   56.9640   75.7710 C   0  0  0  0  0  0  0  0  0  0  0  0
    0.8050   55.7560   75.0400 C   0  0  1  0  0  0  0  0  0  0  0  0
    0.2230   54.4510   75.6120 C   0  0  0  0  0  0  0  0  0  0  0  0
    0.5770   55.7740   73.5000 C   0  0  2  0  0  0  0  0  0  0  0  0
    1.3000   56.8300   72.7000 C   0  0  0  0  0  0  0  0  0  0  0  0
    2.4750   57.4000   73.0150 C   0  0  0  0  0  0  0  0  0  0  0  0
    3.1830   58.3930   72.2350 C   0  0  0  0  0  0  0  0  0  0  0  0
    2.6100   59.4130   71.5790 C   0  0  0  0  0  0  0  0  0  0  0  0
    3.3780   60.5110   70.8890 C   0  0  0  0  0  0  0  0  0  0  0  0
    3.4350   61.8240   71.7010 C   0  0  2  0  0  0  0  0  0  0  0  0
    2.1040   62.3840   71.8410 O   0  0  0  0  0  0  0  0  0  0  0  0
    1.2420   62.0450   72.8240 C   0  0  0  0  0  0  0  0  0  0  0  0
    0.0280   62.1340   72.6400 O   0  0  0  0  0  0  0  0  0  0  0  0
    1.8020   61.5770   74.1470 C   0  0  0  0  0  0  0  0  0  0  0  0
    0.7040   60.8720   74.9600 C   0  0  2  0  0  0  0  0  0  0  0  0
    1.1370   60.5300   76.4210 C   0  0  1  0  0  0  0  0  0  0  0  0
    0.4620   59.2500   77.0290 C   0  0  1  0  0  0  0  0  0  0  0  0
    4.2590   62.8670   70.9490 C   0  0  0  0  0  0  0  0  0  0  0  0
    0.2860   59.7030   74.2520 O   0  0  0  0  0  0  0  0  0  0  0  0
   -0.8230   55.9400   73.2460 O   0  0  0  0  0  0  0  0  0  0  0  0
    2.5670   60.4220   76.5190 O   0  0  0  0  0  0  0  0  0  0  0  0
    3.0480   60.6550   77.8420 C   0  0  0  0  0  0  0  0  0  0  0  0
    1.7470   57.1450   77.7190 C   0  0  0  0  0  0  0  0  0  0  0  0
    3.8240   57.2670   76.5170 O   0  0  0  0  0  0  0  0  0  0  0  0
    3.2290   56.9470   77.5410 C   0  0  0  0  0  0  0  0  0  0  0  0
   -1.1700   59.5364   78.7901 H   0  0  0  0  0  0  0  0  0  0  0  0
   -4.6570   58.3902   77.5358 H   0  0  0  0  0  0  0  0  0  0  0  0
   -3.6013   56.0468   77.4724 H   0  0  0  0  0  0  0  0  0  0  0  0
   -4.5179   56.4905   75.9926 H   0  0  0  0  0  0  0  0  0  0  0  0
   -2.7230   56.5622   75.9926 H   0  0  0  0  0  0  0  0  0  0  0  0
   -2.7305   58.9854   75.2752 H   0  0  0  0  0  0  0  0  0  0  0  0
   -4.5843   60.7588   76.9444 H   0  0  0  0  0  0  0  0  0  0  0  0
   -1.8774   61.5315   77.4315 H   0  0  0  0  0  0  0  0  0  0  0  0
   -4.3702   61.9133   75.1526 H   0  0  0  0  0  0  0  0  0  0  0  0
   -2.0284   60.4420   74.2760 H   0  0  0  0  0  0  0  0  0  0  0  0
   -3.6369   60.6563   73.5057 H   0  0  0  0  0  0  0  0  0  0  0  0
   -2.4539   62.0080   73.5057 H   0  0  0  0  0  0  0  0  0  0  0  0
   -2.6869   62.8679   76.9860 H   0  0  0  0  0  0  0  0  0  0  0  0
   -1.6513   62.8580   75.5183 H   0  0  0  0  0  0  0  0  0  0  0  0
   -3.2005   63.7672   75.5183 H   0  0  0  0  0  0  0  0  0  0  0  0
   -2.8206   60.8474   79.6518 H   0  0  0  0  0  0  0  0  0  0  0  0
   -5.5403   60.6609   76.0930 H   0  0  0  0  0  0  0  0  0  0  0  0
   -8.7490   59.1578   75.4414 H   0  0  0  0  0  0  0  0  0  0  0  0
   -8.1909   59.5081   78.4278 H   0  0  0  0  0  0  0  0  0  0  0  0
   -9.8031   59.4169   77.6410 H   0  0  0  0  0  0  0  0  0  0  0  0
   -8.7212   57.9829   77.6410 H   0  0  0  0  0  0  0  0  0  0  0  0
   -7.5168   61.5361   76.8280 H   0  0  0  0  0  0  0  0  0  0  0  0
   -5.7954   60.9782   73.6465 H   0  0  0  0  0  0  0  0  0  0  0  0
   -6.9569   59.5983   73.6173 H   0  0  0  0  0  0  0  0  0  0  0  0
   -7.1573   63.2825   75.4781 H   0  0  0  0  0  0  0  0  0  0  0  0
   -6.3322   62.8976   73.9296 H   0  0  0  0  0  0  0  0  0  0  0  0
   -8.0626   63.3797   73.9296 H   0  0  0  0  0  0  0  0  0  0  0  0
   -9.5994   60.9551   74.2093 H   0  0  0  0  0  0  0  0  0  0  0  0
   -8.9830   62.7303   79.0505 H   0  0  0  0  0  0  0  0  0  0  0  0
   -7.8711   61.8590   77.8609 H   0  0  0  0  0  0  0  0  0  0  0  0
   -7.7112   64.5046   77.1705 H   0  0  0  0  0  0  0  0  0  0  0  0
   -5.6199   63.3554   78.9980 H   0  0  0  0  0  0  0  0  0  0  0  0
   -5.9771   62.5256   77.4454 H   0  0  0  0  0  0  0  0  0  0  0  0
   -5.4495   64.2426   77.4454 H   0  0  0  0  0  0  0  0  0  0  0  0
   -7.5747   64.3016   80.2090 H   0  0  0  0  0  0  0  0  0  0  0  0
   -6.9681   65.6825   79.2334 H   0  0  0  0  0  0  0  0  0  0  0  0
   -8.7195   65.2835   79.2334 H   0  0  0  0  0  0  0  0  0  0  0  0
    1.9050   58.1941   75.8011 H   0  0  0  0  0  0  0  0  0  0  0  0
   -0.5700   56.5673   76.5029 H   0  0  0  0  0  0  0  0  0  0  0  0
   -0.3124   57.5786   74.9840 H   0  0  0  0  0  0  0  0  0  0  0  0
    1.8896   55.8253   75.2097 H   0  0  0  0  0  0  0  0  0  0  0  0
    0.2413   54.4921   76.7111 H   0  0  0  0  0  0  0  0  0  0  0  0
   -0.8144   54.3299   75.2669 H   0  0  0  0  0  0  0  0  0  0  0  0
    0.8261   53.5983   75.2669 H   0  0  0  0  0  0  0  0  0  0  0  0
    0.9969   54.8145   73.1637 H   0  0  0  0  0  0  0  0  0  0  0  0
    0.8185   57.1652   71.7695 H   0  0  0  0  0  0  0  0  0  0  0  0
    2.9448   57.0812   73.9572 H   0  0  0  0  0  0  0  0  0  0  0  0
    4.2778   58.3040   72.1756 H   0  0  0  0  0  0  0  0  0  0  0  0
    1.5112   59.4505   71.5423 H   0  0  0  0  0  0  0  0  0  0  0  0
    4.4070   60.1621   70.7177 H   0  0  0  0  0  0  0  0  0  0  0  0
    2.8522   60.7334   69.9487 H   0  0  0  0  0  0  0  0  0  0  0  0
    3.8762   61.5910   72.6813 H   0  0  0  0  0  0  0  0  0  0  0  0
    2.6289   60.8748   73.9651 H   0  0  0  0  0  0  0  0  0  0  0  0
    2.1697   62.4460   74.7124 H   0  0  0  0  0  0  0  0  0  0  0  0
   -0.1395   61.5699   75.0670 H   0  0  0  0  0  0  0  0  0  0  0  0
    0.7752   61.3752   77.0250 H   0  0  0  0  0  0  0  0  0  0  0  0
    0.6220   59.2899   78.1166 H   0  0  0  0  0  0  0  0  0  0  0  0
    4.7734   63.5181   71.6711 H   0  0  0  0  0  0  0  0  0  0  0  0
    5.0033   62.3603   70.3171 H   0  0  0  0  0  0  0  0  0  0  0  0
    3.5938   63.4738   70.3171 H   0  0  0  0  0  0  0  0  0  0  0  0
    0.0338   58.9977   74.8993 H   0  0  0  0  0  0  0  0  0  0  0  0
   -1.3099   55.9977   74.1061 H   0  0  0  0  0  0  0  0  0  0  0  0
    2.3062   60.2957   78.5704 H   0  0  0  0  0  0  0  0  0  0  0  0
    3.9959   60.1162   77.9877 H   0  0  0  0  0  0  0  0  0  0  0  0
    3.2128   61.7328   77.9877 H   0  0  0  0  0  0  0  0  0  0  0  0
    1.5717   57.7238   78.6378 H   0  0  0  0  0  0  0  0  0  0  0  0
    1.2721   56.1549   77.7828 H   0  0  0  0  0  0  0  0  0  0  0  0
    3.8026   56.4962   78.3642 H   0  0  0  0  0  0  0  0  0  0  0  0
  2  1  1  0
  3  2  1  0
  4  3  1  0
  5  3  1  0
  6  5  1  0
  7  6  1  0
  7  1  1  0
  8  6  1  0
  9  8  1  0
 10  8  1  0
 11  7  1  0
 12  5  1  0
 13 12  1  0
 14 13  1  0
 15 14  1  0
 16 15  1  0
 17 15  1  0
 18 17  1  0
 19 13  1  0
 19 18  1  0
 20 18  1  0
 18 21  1  6
 22 17  1  0
 23 22  1  0
 24 23  2  0
 25 23  1  0
 26 25  1  0
 27 26  1  0
 28 26  1  0
 29  1  1  0
 31 30  1  0
 32 31  1  0
 33 32  1  0
 34 32  1  0
 35 34  1  0
 36 35  2  0
 37 36  1  0
 38 37  2  0
 39 38  1  0
 40 39  1  0
 41 40  1  0
 42 41  1  0
 43 42  2  0
 44 42  1  0
 45 44  1  0
 46 45  1  0
 47 46  1  0
 47 30  1  0
 47 29  1  0
 48 40  1  0
 49 45  1  0
 50 34  1  0
 51 46  1  0
 52 51  1  0
 53 30  1  0
 55 54  2  0
 55 53  1  0
  1 56  1  1
  3 57  1  1
  4 58  1  0
  4 59  1  0
  4 60  1  0
  5 61  1  6
  6 62  1  1
  7 63  1  6
  8 64  1  0
  9 65  1  0
  9 66  1  0
  9 67  1  0
 10 68  1  0
 10 69  1  0
 10 70  1  0
 11 71  1  0
 13 72  1  1
 15 73  1  6
 16 74  1  0
 16 75  1  0
 16 76  1  0
 17 77  1  1
 19 78  1  0
 19 79  1  0
 20 80  1  0
 20 81  1  0
 20 82  1  0
 21 83  1  0
 25 84  1  0
 25 85  1  0
 26 86  1  0
 27 87  1  0
 27 88  1  0
 27 89  1  0
 28 90  1  0
 28 91  1  0
 28 92  1  0
 30 93  1  6
 31 94  1  0
 31 95  1  0
 32 96  1  6
 33 97  1  0
 33 98  1  0
 33 99  1  0
 34100  1  6
 35101  1  0
 36102  1  0
 37103  1  0
 38104  1  0
 39105  1  0
 39106  1  0
 40107  1  1
 44108  1  0
 44109  1  0
 45110  1  1
 46111  1  1
 47112  1  1
 48113  1  0
 48114  1  0
 48115  1  0
 49116  1  0
 50117  1  0
 52118  1  0
 52119  1  0
 52120  1  0
 53121  1  0
 53122  1  0
 55123  1  0
M  CHG  1   8   1
M  END
>  <score>  (9) 
-5.609

$$$$
