=
     RDKit          3D

 52 54  0  0  0  0  0  0  0  0999 V2000
   -0.0670   66.0760   70.4020 C   0  0  0  0  0  0  0  0  0  0  0  0
    0.7790   65.1410   70.8520 C   0  0  0  0  0  0  0  0  0  0  0  0
    2.0010   64.5260   70.2180 C   0  0  0  0  0  0  0  0  0  0  0  0
    2.4470   63.5090   71.2260 C   0  0  0  0  0  0  0  0  0  0  0  0
    1.6230   63.4980   72.3500 C   0  0  0  0  0  0  0  0  0  0  0  0
    0.5630   64.4940   72.1830 C   0  0  0  0  0  0  0  0  0  0  0  0
   -0.3220   64.7420   72.9760 O   0  0  0  0  0  0  0  0  0  0  0  0
    1.8260   62.6530   73.4250 C   0  0  0  0  0  0  0  0  0  0  0  0
    2.9110   61.7740   73.3630 C   0  0  0  0  0  0  0  0  0  0  0  0
    3.7650   61.7690   72.2230 C   0  0  0  0  0  0  0  0  0  0  0  0
    3.5280   62.6430   71.1510 C   0  0  0  0  0  0  0  0  0  0  0  0
    0.2020   68.0720   66.6260 C   0  0  0  0  0  0  0  0  0  0  0  0
   -0.9240   67.3010   66.9550 C   0  0  0  0  0  0  0  0  0  0  0  0
   -0.9980   66.6470   68.1880 C   0  0  0  0  0  0  0  0  0  0  0  0
    0.0520   66.7430   69.1050 C   0  0  0  0  0  0  0  0  0  0  0  0
    1.1770   67.5050   68.7790 C   0  0  0  0  0  0  0  0  0  0  0  0
    1.2550   68.1620   67.5480 C   0  0  0  0  0  0  0  0  0  0  0  0
    0.2630   68.8130   65.3170 C   0  0  0  0  0  0  0  0  0  0  0  0
    0.6080   67.9240   64.1360 N   0  0  1  0  0  4  0  0  0  0  0  0
    0.1350   68.5120   62.8310 C   0  0  0  0  0  0  0  0  0  0  0  0
    2.9380   68.8270   64.2000 C   0  0  0  0  0  0  0  0  0  0  0  0
    2.0800   67.5760   64.1300 C   0  0  0  0  0  0  0  0  0  0  0  0
    4.8020   60.8680   72.2650 O   0  0  0  0  0  0  0  0  0  0  0  0
    5.7840   60.9330   71.2420 C   0  0  0  0  0  0  0  0  0  0  0  0
    3.2350   60.8790   74.3540 O   0  0  0  0  0  0  0  0  0  0  0  0
    2.1990   60.4650   75.2330 C   0  0  0  0  0  0  0  0  0  0  0  0
   -0.9080   66.3620   71.0508 H   0  0  0  0  0  0  0  0  0  0  0  0
    1.7477   64.0459   69.2613 H   0  0  0  0  0  0  0  0  0  0  0  0
    2.7801   65.2666   69.9845 H   0  0  0  0  0  0  0  0  0  0  0  0
    1.1574   62.6717   74.2983 H   0  0  0  0  0  0  0  0  0  0  0  0
    4.1859   62.6414   70.2694 H   0  0  0  0  0  0  0  0  0  0  0  0
   -1.7533   67.2110   66.2379 H   0  0  0  0  0  0  0  0  0  0  0  0
   -1.8891   66.0525   68.4383 H   0  0  0  0  0  0  0  0  0  0  0  0
    2.0069   67.5883   69.4962 H   0  0  0  0  0  0  0  0  0  0  0  0
    2.1485   68.7539   67.3005 H   0  0  0  0  0  0  0  0  0  0  0  0
   -0.7183   69.2740   65.1313 H   0  0  0  0  0  0  0  0  0  0  0  0
    1.0643   69.5614   65.4048 H   0  0  0  0  0  0  0  0  0  0  0  0
    0.0944   67.0378   64.2449 H   0  0  0  0  0  0  0  0  0  0  0  0
   -0.5428   69.3546   63.0327 H   0  0  0  0  0  0  0  0  0  0  0  0
    1.0011   68.8682   62.2540 H   0  0  0  0  0  0  0  0  0  0  0  0
   -0.3985   67.7423   62.2540 H   0  0  0  0  0  0  0  0  0  0  0  0
    3.1181   69.0896   65.2529 H   0  0  0  0  0  0  0  0  0  0  0  0
    3.8994   68.6408   63.6989 H   0  0  0  0  0  0  0  0  0  0  0  0
    2.4180   69.6568   63.6989 H   0  0  0  0  0  0  0  0  0  0  0  0
    2.3162   67.0297   63.2049 H   0  0  0  0  0  0  0  0  0  0  0  0
    2.2957   66.9547   65.0118 H   0  0  0  0  0  0  0  0  0  0  0  0
    6.7834   60.9992   71.6968 H   0  0  0  0  0  0  0  0  0  0  0  0
    5.7241   60.0289   70.6183 H   0  0  0  0  0  0  0  0  0  0  0  0
    5.6055   61.8213   70.6183 H   0  0  0  0  0  0  0  0  0  0  0  0
    2.5276   60.5963   76.2745 H   0  0  0  0  0  0  0  0  0  0  0  0
    1.3003   61.0731   75.0526 H   0  0  0  0  0  0  0  0  0  0  0  0
    1.9668   59.4050   75.0526 H   0  0  0  0  0  0  0  0  0  0  0  0
  2  1  2  0
  3  2  1  0
  4  3  1  0
  5  4  2  0
  6  5  1  0
  6  2  1  0
  7  6  2  0
  8  5  1  0
  9  8  2  0
 10  9  1  0
 11 10  2  0
 11  4  1  0
 13 12  2  0
 14 13  1  0
 15 14  2  0
 15  1  1  0
 16 15  1  0
 17 16  2  0
 17 12  1  0
 18 12  1  0
 19 18  1  0
 20 19  1  0
 22 21  1  0
 22 19  1  0
 23 10  1  0
 24 23  1  0
 25  9  1  0
 26 25  1  0
  1 27  1  0
  3 28  1  0
  3 29  1  0
  8 30  1  0
 11 31  1  0
 13 32  1  0
 14 33  1  0
 16 34  1  0
 17 35  1  0
 18 36  1  0
 18 37  1  0
 19 38  1  1
 20 39  1  0
 20 40  1  0
 20 41  1  0
 21 42  1  0
 21 43  1  0
 21 44  1  0
 22 45  1  0
 22 46  1  0
 24 47  1  0
 24 48  1  0
 24 49  1  0
 26 50  1  0
 26 51  1  0
 26 52  1  0
M  CHG  1  19   1
M  END
>  <score>  (1) 
-9.406

$$$$
=
     RDKit          3D

 52 54  0  0  0  0  0  0  0  0999 V2000
    0.0600   65.6640   70.8900 C   0  0  0  0  0  0  0  0  0  0  0  0
    0.7290   64.5310   71.1390 C   0  0  0  0  0  0  0  0  0  0  0  0
    1.7160   63.7610   70.3000 C   0  0  0  0  0  0  0  0  0  0  0  0
    2.0390   62.5640   71.1440 C   0  0  0  0  0  0  0  0  0  0  0  0
    1.3560   62.5870   72.3580 C   0  0  0  0  0  0  0  0  0  0  0  0
    0.5230   63.7900   72.4220 C   0  0  0  0  0  0  0  0  0  0  0  0
   -0.1990   64.1160   73.3420 O   0  0  0  0  0  0  0  0  0  0  0  0
    1.4860   61.5980   73.3160 C   0  0  0  0  0  0  0  0  0  0  0  0
    2.3460   60.5330   73.0340 C   0  0  0  0  0  0  0  0  0  0  0  0
    3.0520   60.4890   71.7980 C   0  0  0  0  0  0  0  0  0  0  0  0
    2.8950   61.5130   70.8500 C   0  0  0  0  0  0  0  0  0  0  0  0
    0.4940   67.8910   67.2630 C   0  0  0  0  0  0  0  0  0  0  0  0
    1.4940   67.9160   68.2480 C   0  0  0  0  0  0  0  0  0  0  0  0
    1.3380   67.1920   69.4320 C   0  0  0  0  0  0  0  0  0  0  0  0
    0.1810   66.4400   69.6570 C   0  0  0  0  0  0  0  0  0  0  0  0
   -0.8190   66.4170   68.6810 C   0  0  0  0  0  0  0  0  0  0  0  0
   -0.6670   67.1390   67.4940 C   0  0  0  0  0  0  0  0  0  0  0  0
    0.6810   68.6360   65.9670 C   0  0  0  0  0  0  0  0  0  0  0  0
    0.7400   67.7260   64.7520 N   0  0  1  0  0  4  0  0  0  0  0  0
    0.6420   68.5010   63.4630 C   0  0  0  0  0  0  0  0  0  0  0  0
    3.2360   67.6230   64.7320 C   0  0  0  0  0  0  0  0  0  0  0  0
    1.9500   66.8210   64.8090 C   0  0  0  0  0  0  0  0  0  0  0  0
    3.8700   59.3990   71.6230 O   0  0  0  0  0  0  0  0  0  0  0  0
    3.4350   58.3710   70.7450 C   0  0  0  0  0  0  0  0  0  0  0  0
    2.5740   59.4810   73.8880 O   0  0  0  0  0  0  0  0  0  0  0  0
    1.5390   58.5200   74.0430 C   0  0  0  0  0  0  0  0  0  0  0  0
   -0.6265   66.0356   71.6650 H   0  0  0  0  0  0  0  0  0  0  0  0
    1.2654   63.4571   69.3436 H   0  0  0  0  0  0  0  0  0  0  0  0
    2.6062   64.3516   70.0379 H   0  0  0  0  0  0  0  0  0  0  0  0
    0.9326   61.6478   74.2654 H   0  0  0  0  0  0  0  0  0  0  0  0
    3.4393   61.4823   69.8946 H   0  0  0  0  0  0  0  0  0  0  0  0
    2.4060   68.5094   68.0862 H   0  0  0  0  0  0  0  0  0  0  0  0
    2.1316   67.2136   70.1935 H   0  0  0  0  0  0  0  0  0  0  0  0
   -1.7320   65.8266   68.8482 H   0  0  0  0  0  0  0  0  0  0  0  0
   -1.4635   67.1173   66.7357 H   0  0  0  0  0  0  0  0  0  0  0  0
   -0.1608   69.3326   65.8405 H   0  0  0  0  0  0  0  0  0  0  0  0
    1.6469   69.1586   66.0289 H   0  0  0  0  0  0  0  0  0  0  0  0
   -0.0881   67.1139   64.7731 H   0  0  0  0  0  0  0  0  0  0  0  0
    0.5069   69.5695   63.6869 H   0  0  0  0  0  0  0  0  0  0  0  0
    1.5648   68.3622   62.8807 H   0  0  0  0  0  0  0  0  0  0  0  0
   -0.2173   68.1369   62.8807 H   0  0  0  0  0  0  0  0  0  0  0  0
    3.5914   67.8446   65.7492 H   0  0  0  0  0  0  0  0  0  0  0  0
    3.9997   67.0408   64.1955 H   0  0  0  0  0  0  0  0  0  0  0  0
    3.0491   68.5649   64.1955 H   0  0  0  0  0  0  0  0  0  0  0  0
    1.9135   66.1186   63.9633 H   0  0  0  0  0  0  0  0  0  0  0  0
    1.9344   66.2765   65.7647 H   0  0  0  0  0  0  0  0  0  0  0  0
    3.0728   57.5151   71.3335 H   0  0  0  0  0  0  0  0  0  0  0  0
    2.6205   58.7508   70.1107 H   0  0  0  0  0  0  0  0  0  0  0  0
    4.2748   58.0508   70.1107 H   0  0  0  0  0  0  0  0  0  0  0  0
    1.3548   58.3490   75.1139 H   0  0  0  0  0  0  0  0  0  0  0  0
    0.6193   58.8917   73.5675 H   0  0  0  0  0  0  0  0  0  0  0  0
    1.8416   57.5753   73.5675 H   0  0  0  0  0  0  0  0  0  0  0  0
  2  1  2  0
  3  2  1  0
  4  3  1  0
  5  4  2  0
  6  5  1  0
  6  2  1  0
  7  6  2  0
  8  5  1  0
  9  8  2  0
 10  9  1  0
 11 10  2  0
 11  4  1  0
 13 12  2  0
 14 13  1  0
 15 14  2  0
 15  1  1  0
 16 15  1  0
 17 16  2  0
 17 12  1  0
 18 12  1  0
 19 18  1  0
 20 19  1  0
 22 21  1  0
 22 19  1  0
 23 10  1  0
 24 23  1  0
 25  9  1  0
 26 25  1  0
  1 27  1  0
  3 28  1  0
  3 29  1  0
  8 30  1  0
 11 31  1  0
 13 32  1  0
 14 33  1  0
 16 34  1  0
 17 35  1  0
 18 36  1  0
 18 37  1  0
 19 38  1  1
 20 39  1  0
 20 40  1  0
 20 41  1  0
 21 42  1  0
 21 43  1  0
 21 44  1  0
 22 45  1  0
 22 46  1  0
 24 47  1  0
 24 48  1  0
 24 49  1  0
 26 50  1  0
 26 51  1  0
 26 52  1  0
M  CHG  1  19   1
M  END
>  <score>  (2) 
-8.968

$$$$
=
     RDKit          3D

 52 54  0  0  0  0  0  0  0  0999 V2000
    0.4720   66.4780   70.0430 C   0  0  0  0  0  0  0  0  0  0  0  0
    1.0030   65.3210   70.4590 C   0  0  0  0  0  0  0  0  0  0  0  0
    2.0520   64.4350   69.8370 C   0  0  0  0  0  0  0  0  0  0  0  0
    2.1420   63.2760   70.7850 C   0  0  0  0  0  0  0  0  0  0  0  0
    1.2740   63.4230   71.8660 C   0  0  0  0  0  0  0  0  0  0  0  0
    0.5350   64.6790   71.7260 C   0  0  0  0  0  0  0  0  0  0  0  0
   -0.3000   65.1110   72.4940 O   0  0  0  0  0  0  0  0  0  0  0  0
    1.1710   62.4910   72.8820 C   0  0  0  0  0  0  0  0  0  0  0  0
    1.9810   61.3550   72.8040 C   0  0  0  0  0  0  0  0  0  0  0  0
    2.8740   61.1850   71.7070 C   0  0  0  0  0  0  0  0  0  0  0  0
    2.9510   62.1540   70.6940 C   0  0  0  0  0  0  0  0  0  0  0  0
    1.6670   68.4560   66.4420 C   0  0  0  0  0  0  0  0  0  0  0  0
    2.2820   68.7570   67.6670 C   0  0  0  0  0  0  0  0  0  0  0  0
    1.8780   68.1110   68.8380 C   0  0  0  0  0  0  0  0  0  0  0  0
    0.8500   67.1630   68.8080 C   0  0  0  0  0  0  0  0  0  0  0  0
    0.2320   66.8650   67.5910 C   0  0  0  0  0  0  0  0  0  0  0  0
    0.6340   67.5080   66.4160 C   0  0  0  0  0  0  0  0  0  0  0  0
    2.1330   69.1180   65.1720 C   0  0  0  0  0  0  0  0  0  0  0  0
    3.3300   68.4330   64.5380 N   0  0  1  0  0  4  0  0  0  0  0  0
    2.9640   67.7320   63.2550 C   0  0  0  0  0  0  0  0  0  0  0  0
    5.1640   69.6620   65.7100 C   0  0  0  0  0  0  0  0  0  0  0  0
    4.4860   69.3950   64.3780 C   0  0  0  0  0  0  0  0  0  0  0  0
    3.6240   60.0350   71.7290 O   0  0  0  0  0  0  0  0  0  0  0  0
    3.3450   59.0370   70.7580 C   0  0  0  0  0  0  0  0  0  0  0  0
    1.9860   60.3480   73.7380 O   0  0  0  0  0  0  0  0  0  0  0  0
    2.6330   60.6000   74.9780 C   0  0  0  0  0  0  0  0  0  0  0  0
   -0.3002   66.9441   70.6727 H   0  0  0  0  0  0  0  0  0  0  0  0
    1.7407   64.1007   68.8364 H   0  0  0  0  0  0  0  0  0  0  0  0
    3.0151   64.9473   69.6956 H   0  0  0  0  0  0  0  0  0  0  0  0
    0.4761   62.6385   73.7219 H   0  0  0  0  0  0  0  0  0  0  0  0
    3.6392   62.0255   69.8455 H   0  0  0  0  0  0  0  0  0  0  0  0
    3.0868   69.5059   67.7054 H   0  0  0  0  0  0  0  0  0  0  0  0
    2.3723   68.3498   69.7912 H   0  0  0  0  0  0  0  0  0  0  0  0
   -0.5762   66.1196   67.5568 H   0  0  0  0  0  0  0  0  0  0  0  0
    0.1364   67.2685   65.4647 H   0  0  0  0  0  0  0  0  0  0  0  0
    1.3034   69.1091   64.4497 H   0  0  0  0  0  0  0  0  0  0  0  0
    2.4455   70.1395   65.4346 H   0  0  0  0  0  0  0  0  0  0  0  0
    3.6478   67.6927   65.1798 H   0  0  0  0  0  0  0  0  0  0  0  0
    2.4663   66.7788   63.4870 H   0  0  0  0  0  0  0  0  0  0  0  0
    2.2831   68.3684   62.6708 H   0  0  0  0  0  0  0  0  0  0  0  0
    3.8754   67.5371   62.6708 H   0  0  0  0  0  0  0  0  0  0  0  0
    4.4812   69.3931   66.5294 H   0  0  0  0  0  0  0  0  0  0  0  0
    6.0801   69.0575   65.7828 H   0  0  0  0  0  0  0  0  0  0  0  0
    5.4219   70.7289   65.7828 H   0  0  0  0  0  0  0  0  0  0  0  0
    4.1092   70.3445   63.9701 H   0  0  0  0  0  0  0  0  0  0  0  0
    5.2222   68.9456   63.6953 H   0  0  0  0  0  0  0  0  0  0  0  0
    3.0820   58.0964   71.2641 H   0  0  0  0  0  0  0  0  0  0  0  0
    2.5034   59.3626   70.1289 H   0  0  0  0  0  0  0  0  0  0  0  0
    4.2334   58.8790   70.1289 H   0  0  0  0  0  0  0  0  0  0  0  0
    1.9567   60.3366   75.8046 H   0  0  0  0  0  0  0  0  0  0  0  0
    3.5475   59.9923   75.0446 H   0  0  0  0  0  0  0  0  0  0  0  0
    2.8956   61.6661   75.0446 H   0  0  0  0  0  0  0  0  0  0  0  0
  2  1  2  0
  3  2  1  0
  4  3  1  0
  5  4  2  0
  6  5  1  0
  6  2  1  0
  7  6  2  0
  8  5  1  0
  9  8  2  0
 10  9  1  0
 11 10  2  0
 11  4  1  0
 13 12  2  0
 14 13  1  0
 15 14  2  0
 15  1  1  0
 16 15  1  0
 17 16  2  0
 17 12  1  0
 18 12  1  0
 19 18  1  0
 20 19  1  0
 22 21  1  0
 22 19  1  0
 23 10  1  0
 24 23  1  0
 25  9  1  0
 26 25  1  0
  1 27  1  0
  3 28  1  0
  3 29  1  0
  8 30  1  0
 11 31  1  0
 13 32  1  0
 14 33  1  0
 16 34  1  0
 17 35  1  0
 18 36  1  0
 18 37  1  0
 19 38  1  1
 20 39  1  0
 20 40  1  0
 20 41  1  0
 21 42  1  0
 21 43  1  0
 21 44  1  0
 22 45  1  0
 22 46  1  0
 24 47  1  0
 24 48  1  0
 24 49  1  0
 26 50  1  0
 26 51  1  0
 26 52  1  0
M  CHG  1  19   1
M  END
>  <score>  (3) 
-8.367

$$$$
=
     RDKit          3D

 52 54  0  0  0  0  0  0  0  0999 V2000
    2.1990   56.9180   72.4640 C   0  0  0  0  0  0  0  0  0  0  0  0
    2.3510   58.2050   72.1250 C   0  0  0  0  0  0  0  0  0  0  0  0
    1.7390   59.4570   72.7000 C   0  0  0  0  0  0  0  0  0  0  0  0
    2.2840   60.5480   71.8270 C   0  0  0  0  0  0  0  0  0  0  0  0
    3.1360   60.0480   70.8440 C   0  0  0  0  0  0  0  0  0  0  0  0
    3.2240   58.5920   70.9740 C   0  0  0  0  0  0  0  0  0  0  0  0
    3.8810   57.8470   70.2770 O   0  0  0  0  0  0  0  0  0  0  0  0
    3.7700   60.8530   69.9150 C   0  0  0  0  0  0  0  0  0  0  0  0
    3.5320   62.2280   69.9800 C   0  0  0  0  0  0  0  0  0  0  0  0
    2.6640   62.7600   70.9770 C   0  0  0  0  0  0  0  0  0  0  0  0
    2.0390   61.9110   71.9030 C   0  0  0  0  0  0  0  0  0  0  0  0
   -0.3200   55.4700   75.6050 C   0  0  0  0  0  0  0  0  0  0  0  0
   -0.8560   55.8230   74.3560 C   0  0  0  0  0  0  0  0  0  0  0  0
   -0.0250   56.3020   73.3400 C   0  0  0  0  0  0  0  0  0  0  0  0
    1.3490   56.4460   73.5560 C   0  0  0  0  0  0  0  0  0  0  0  0
    1.8850   56.1020   74.7990 C   0  0  0  0  0  0  0  0  0  0  0  0
    1.0580   55.6200   75.8180 C   0  0  0  0  0  0  0  0  0  0  0  0
   -1.2080   54.9100   76.6850 C   0  0  0  0  0  0  0  0  0  0  0  0
   -0.7820   53.5330   77.1630 N   0  0  1  0  0  4  0  0  0  0  0  0
   -1.4700   53.1450   78.4470 C   0  0  0  0  0  0  0  0  0  0  0  0
    0.3930   51.9050   75.6750 C   0  0  0  0  0  0  0  0  0  0  0  0
   -0.9460   52.5030   76.0670 C   0  0  0  0  0  0  0  0  0  0  0  0
    2.5010   64.1240   70.9520 O   0  0  0  0  0  0  0  0  0  0  0  0
    1.2190   64.6370   70.6210 C   0  0  0  0  0  0  0  0  0  0  0  0
    4.0920   63.1470   69.1260 O   0  0  0  0  0  0  0  0  0  0  0  0
    3.7280   63.0800   67.7540 C   0  0  0  0  0  0  0  0  0  0  0  0
    2.7509   56.1655   71.8816 H   0  0  0  0  0  0  0  0  0  0  0  0
    0.6411   59.4196   72.6429 H   0  0  0  0  0  0  0  0  0  0  0  0
    1.9787   59.6006   73.7639 H   0  0  0  0  0  0  0  0  0  0  0  0
    4.4377   60.4258   69.1523 H   0  0  0  0  0  0  0  0  0  0  0  0
    1.3682   62.3183   72.6738 H   0  0  0  0  0  0  0  0  0  0  0  0
   -1.9365   55.7218   74.1764 H   0  0  0  0  0  0  0  0  0  0  0  0
   -0.4548   56.5678   72.3630 H   0  0  0  0  0  0  0  0  0  0  0  0
    2.9649   56.2110   74.9774 H   0  0  0  0  0  0  0  0  0  0  0  0
    1.4914   55.3565   76.7941 H   0  0  0  0  0  0  0  0  0  0  0  0
   -1.1895   55.5980   77.5431 H   0  0  0  0  0  0  0  0  0  0  0  0
   -2.2156   54.8072   76.2558 H   0  0  0  0  0  0  0  0  0  0  0  0
    0.2229   53.5703   77.3858 H   0  0  0  0  0  0  0  0  0  0  0  0
   -0.8679   53.4845   79.3027 H   0  0  0  0  0  0  0  0  0  0  0  0
   -2.4632   53.6160   78.4876 H   0  0  0  0  0  0  0  0  0  0  0  0
   -1.5809   52.0514   78.4876 H   0  0  0  0  0  0  0  0  0  0  0  0
    0.9610   51.6513   76.5822 H   0  0  0  0  0  0  0  0  0  0  0  0
    0.2279   50.9951   75.0794 H   0  0  0  0  0  0  0  0  0  0  0  0
    0.9604   52.6352   75.0794 H   0  0  0  0  0  0  0  0  0  0  0  0
   -1.3964   52.9841   75.1862 H   0  0  0  0  0  0  0  0  0  0  0  0
   -1.5937   51.6958   76.4399 H   0  0  0  0  0  0  0  0  0  0  0  0
    0.6635   64.8593   71.5440 H   0  0  0  0  0  0  0  0  0  0  0  0
    1.3339   65.5584   70.0313 H   0  0  0  0  0  0  0  0  0  0  0  0
    0.6665   63.8907   70.0313 H   0  0  0  0  0  0  0  0  0  0  0  0
    2.6493   62.8815   67.6701 H   0  0  0  0  0  0  0  0  0  0  0  0
    3.9639   64.0366   67.2649 H   0  0  0  0  0  0  0  0  0  0  0  0
    4.2890   62.2700   67.2649 H   0  0  0  0  0  0  0  0  0  0  0  0
  2  1  2  0
  3  2  1  0
  4  3  1  0
  5  4  2  0
  6  5  1  0
  6  2  1  0
  7  6  2  0
  8  5  1  0
  9  8  2  0
 10  9  1  0
 11 10  2  0
 11  4  1  0
 13 12  2  0
 14 13  1  0
 15 14  2  0
 15  1  1  0
 16 15  1  0
 17 16  2  0
 17 12  1  0
 18 12  1  0
 19 18  1  0
 20 19  1  0
 22 21  1  0
 22 19  1  0
 23 10  1  0
 24 23  1  0
 25  9  1  0
 26 25  1  0
  1 27  1  0
  3 28  1  0
  3 29  1  0
  8 30  1  0
 11 31  1  0
 13 32  1  0
 14 33  1  0
 16 34  1  0
 17 35  1  0
 18 36  1  0
 18 37  1  0
 19 38  1  1
 20 39  1  0
 20 40  1  0
 20 41  1  0
 21 42  1  0
 21 43  1  0
 21 44  1  0
 22 45  1  0
 22 46  1  0
 24 47  1  0
 24 48  1  0
 24 49  1  0
 26 50  1  0
 26 51  1  0
 26 52  1  0
M  CHG  1  19   1
M  END
>  <score>  (4) 
-7.368

$$$$
=
     RDKit          3D

 52 54  0  0  0  0  0  0  0  0999 V2000
   -0.2440   66.8540   68.5300 C   0  0  0  0  0  0  0  0  0  0  0  0
    0.2220   67.1720   67.3160 C   0  0  0  0  0  0  0  0  0  0  0  0
    1.4470   66.7030   66.5720 C   0  0  0  0  0  0  0  0  0  0  0  0
    1.4070   67.4890   65.2950 C   0  0  0  0  0  0  0  0  0  0  0  0
    0.2960   68.3290   65.2390 C   0  0  0  0  0  0  0  0  0  0  0  0
   -0.4870   68.1790   66.4670 C   0  0  0  0  0  0  0  0  0  0  0  0
   -1.5150   68.7660   66.7400 O   0  0  0  0  0  0  0  0  0  0  0  0
    0.0300   69.1550   64.1630 C   0  0  0  0  0  0  0  0  0  0  0  0
    0.9280   69.1340   63.0920 C   0  0  0  0  0  0  0  0  0  0  0  0
    2.0700   68.2830   63.1300 C   0  0  0  0  0  0  0  0  0  0  0  0
    2.3060   67.4570   64.2410 C   0  0  0  0  0  0  0  0  0  0  0  0
    1.6080   63.9960   71.1210 C   0  0  0  0  0  0  0  0  0  0  0  0
    0.2740   63.8400   70.7120 C   0  0  0  0  0  0  0  0  0  0  0  0
   -0.3230   64.7830   69.8730 C   0  0  0  0  0  0  0  0  0  0  0  0
    0.3960   65.9000   69.4360 C   0  0  0  0  0  0  0  0  0  0  0  0
    1.7220   66.0620   69.8450 C   0  0  0  0  0  0  0  0  0  0  0  0
    2.3240   65.1200   70.6840 C   0  0  0  0  0  0  0  0  0  0  0  0
    2.2670   62.9560   71.9890 C   0  0  0  0  0  0  0  0  0  0  0  0
    3.3120   62.1330   71.2560 N   0  0  1  0  0  4  0  0  0  0  0  0
    4.6030   62.0470   72.0290 C   0  0  0  0  0  0  0  0  0  0  0  0
    3.4370   60.2570   69.6110 C   0  0  0  0  0  0  0  0  0  0  0  0
    2.7630   60.7790   70.8660 C   0  0  0  0  0  0  0  0  0  0  0  0
    2.8850   68.3390   62.0260 O   0  0  0  0  0  0  0  0  0  0  0  0
    4.0280   67.4960   61.9970 C   0  0  0  0  0  0  0  0  0  0  0  0
    0.7920   69.8980   61.9580 O   0  0  0  0  0  0  0  0  0  0  0  0
   -0.4710   69.8940   61.3070 C   0  0  0  0  0  0  0  0  0  0  0  0
   -1.1695   67.3424   68.8689 H   0  0  0  0  0  0  0  0  0  0  0  0
    2.3614   66.9254   67.1415 H   0  0  0  0  0  0  0  0  0  0  0  0
    1.4551   65.6159   66.4045 H   0  0  0  0  0  0  0  0  0  0  0  0
   -0.8568   69.8057   64.1500 H   0  0  0  0  0  0  0  0  0  0  0  0
    3.1863   66.7982   64.2738 H   0  0  0  0  0  0  0  0  0  0  0  0
   -0.3045   62.9694   71.0547 H   0  0  0  0  0  0  0  0  0  0  0  0
   -1.3666   64.6463   69.5534 H   0  0  0  0  0  0  0  0  0  0  0  0
    2.2959   66.9365   69.5046 H   0  0  0  0  0  0  0  0  0  0  0  0
    3.3669   65.2613   71.0039 H   0  0  0  0  0  0  0  0  0  0  0  0
    2.7537   63.4647   72.8342 H   0  0  0  0  0  0  0  0  0  0  0  0
    1.4798   62.2621   72.3189 H   0  0  0  0  0  0  0  0  0  0  0  0
    3.5433   62.6211   70.3790 H   0  0  0  0  0  0  0  0  0  0  0  0
    4.3863   62.0614   73.1074 H   0  0  0  0  0  0  0  0  0  0  0  0
    5.1227   61.1122   71.7719 H   0  0  0  0  0  0  0  0  0  0  0  0
    5.2421   62.9046   71.7719 H   0  0  0  0  0  0  0  0  0  0  0  0
    4.2781   59.6055   69.8904 H   0  0  0  0  0  0  0  0  0  0  0  0
    2.7108   59.6834   69.0163 H   0  0  0  0  0  0  0  0  0  0  0  0
    3.8107   61.1036   69.0163 H   0  0  0  0  0  0  0  0  0  0  0  0
    1.6822   60.8689   70.6824 H   0  0  0  0  0  0  0  0  0  0  0  0
    2.9584   60.0732   71.6868 H   0  0  0  0  0  0  0  0  0  0  0  0
    4.3401   67.2658   63.0264 H   0  0  0  0  0  0  0  0  0  0  0  0
    3.7814   66.5619   61.4711 H   0  0  0  0  0  0  0  0  0  0  0  0
    4.8476   68.0075   61.4711 H   0  0  0  0  0  0  0  0  0  0  0  0
   -1.2721   69.8915   62.0609 H   0  0  0  0  0  0  0  0  0  0  0  0
   -0.5622   70.7919   60.6781 H   0  0  0  0  0  0  0  0  0  0  0  0
   -0.5565   68.9956   60.6781 H   0  0  0  0  0  0  0  0  0  0  0  0
  2  1  2  0
  3  2  1  0
  4  3  1  0
  5  4  2  0
  6  5  1  0
  6  2  1  0
  7  6  2  0
  8  5  1  0
  9  8  2  0
 10  9  1  0
 11 10  2  0
 11  4  1  0
 13 12  2  0
 14 13  1  0
 15 14  2  0
 15  1  1  0
 16 15  1  0
 17 16  2  0
 17 12  1  0
 18 12  1  0
 19 18  1  0
 20 19  1  0
 22 21  1  0
 22 19  1  0
 23 10  1  0
 24 23  1  0
 25  9  1  0
 26 25  1  0
  1 27  1  0
  3 28  1  0
  3 29  1  0
  8 30  1  0
 11 31  1  0
 13 32  1  0
 14 33  1  0
 16 34  1  0
 17 35  1  0
 18 36  1  0
 18 37  1  0
 19 38  1  6
 20 39  1  0
 20 40  1  0
 20 41  1  0
 21 42  1  0
 21 43  1  0
 21 44  1  0
 22 45  1  0
 22 46  1  0
 24 47  1  0
 24 48  1  0
 24 49  1  0
 26 50  1  0
 26 51  1  0
 26 52  1  0
M  CHG  1  19   1
M  END
>  <score>  (5) 
-7.348

$$$$
=
     RDKit          3D

 52 54  0  0  0  0  0  0  0  0999 V2000
   -2.5910   59.8280   74.5970 C   0  0  0  0  0  0  0  0  0  0  0  0
   -1.5480   60.2770   73.8860 C   0  0  0  0  0  0  0  0  0  0  0  0
   -1.3540   61.5610   73.1200 C   0  0  0  0  0  0  0  0  0  0  0  0
    0.0080   61.4060   72.5120 C   0  0  0  0  0  0  0  0  0  0  0  0
    0.5960   60.1920   72.8620 C   0  0  0  0  0  0  0  0  0  0  0  0
   -0.3200   59.4400   73.7210 C   0  0  0  0  0  0  0  0  0  0  0  0
   -0.1180   58.3440   74.2020 O   0  0  0  0  0  0  0  0  0  0  0  0
    1.8550   59.8130   72.4330 C   0  0  0  0  0  0  0  0  0  0  0  0
    2.5530   60.6990   71.6080 C   0  0  0  0  0  0  0  0  0  0  0  0
    1.9680   61.9450   71.2370 C   0  0  0  0  0  0  0  0  0  0  0  0
    0.6880   62.2960   71.6940 C   0  0  0  0  0  0  0  0  0  0  0  0
   -6.2010   62.0630   75.1250 C   0  0  0  0  0  0  0  0  0  0  0  0
   -4.9860   62.5180   75.6630 C   0  0  0  0  0  0  0  0  0  0  0  0
   -3.8150   61.7760   75.4910 C   0  0  0  0  0  0  0  0  0  0  0  0
   -3.8380   60.5660   74.7910 C   0  0  0  0  0  0  0  0  0  0  0  0
   -5.0460   60.1070   74.2590 C   0  0  0  0  0  0  0  0  0  0  0  0
   -6.2200   60.8470   74.4270 C   0  0  0  0  0  0  0  0  0  0  0  0
   -7.4550   62.8850   75.2710 C   0  0  0  0  0  0  0  0  0  0  0  0
   -7.7810   63.7090   74.0380 N   0  0  1  0  0  4  0  0  0  0  0  0
   -8.9810   63.1690   73.3020 C   0  0  0  0  0  0  0  0  0  0  0  0
   -6.5450   65.8190   74.5510 C   0  0  0  0  0  0  0  0  0  0  0  0
   -7.9090   65.1760   74.3830 C   0  0  0  0  0  0  0  0  0  0  0  0
    2.7400   62.7410   70.4260 O   0  0  0  0  0  0  0  0  0  0  0  0
    2.5730   64.1480   70.5180 C   0  0  0  0  0  0  0  0  0  0  0  0
    3.8080   60.4570   71.1060 O   0  0  0  0  0  0  0  0  0  0  0  0
    4.8880   60.4000   72.0280 C   0  0  0  0  0  0  0  0  0  0  0  0
   -2.5031   58.8371   75.0665 H   0  0  0  0  0  0  0  0  0  0  0  0
   -2.1218   61.6731   72.3403 H   0  0  0  0  0  0  0  0  0  0  0  0
   -1.4395   62.4550   73.7552 H   0  0  0  0  0  0  0  0  0  0  0  0
    2.2915   58.8482   72.7307 H   0  0  0  0  0  0  0  0  0  0  0  0
    0.2339   63.2566   71.4094 H   0  0  0  0  0  0  0  0  0  0  0  0
   -4.9564   63.4643   76.2231 H   0  0  0  0  0  0  0  0  0  0  0  0
   -2.8676   62.1466   75.9095 H   0  0  0  0  0  0  0  0  0  0  0  0
   -5.0732   59.1574   73.7045 H   0  0  0  0  0  0  0  0  0  0  0  0
   -7.1659   60.4726   74.0085 H   0  0  0  0  0  0  0  0  0  0  0  0
   -8.2968   62.2052   75.4690 H   0  0  0  0  0  0  0  0  0  0  0  0
   -7.2874   63.5900   76.0986 H   0  0  0  0  0  0  0  0  0  0  0  0
   -6.9906   63.6269   73.3827 H   0  0  0  0  0  0  0  0  0  0  0  0
   -9.7345   62.8299   74.0281 H   0  0  0  0  0  0  0  0  0  0  0  0
   -9.4106   63.9606   72.6704 H   0  0  0  0  0  0  0  0  0  0  0  0
   -8.6734   62.3225   72.6704 H   0  0  0  0  0  0  0  0  0  0  0  0
   -6.3192   65.9254   75.6223 H   0  0  0  0  0  0  0  0  0  0  0  0
   -5.7805   65.1865   74.0762 H   0  0  0  0  0  0  0  0  0  0  0  0
   -6.5464   66.8113   74.0762 H   0  0  0  0  0  0  0  0  0  0  0  0
   -8.4716   65.2762   75.3229 H   0  0  0  0  0  0  0  0  0  0  0  0
   -8.4355   65.6834   73.5612 H   0  0  0  0  0  0  0  0  0  0  0  0
    2.5378   64.4446   71.5767 H   0  0  0  0  0  0  0  0  0  0  0  0
    3.4178   64.6506   70.0243 H   0  0  0  0  0  0  0  0  0  0  0  0
    1.6340   64.4389   70.0243 H   0  0  0  0  0  0  0  0  0  0  0  0
    4.4948   60.4208   73.0551 H   0  0  0  0  0  0  0  0  0  0  0  0
    5.4553   59.4707   71.8713 H   0  0  0  0  0  0  0  0  0  0  0  0
    5.5499   61.2645   71.8713 H   0  0  0  0  0  0  0  0  0  0  0  0
  2  1  2  0
  3  2  1  0
  4  3  1  0
  5  4  2  0
  6  5  1  0
  6  2  1  0
  7  6  2  0
  8  5  1  0
  9  8  2  0
 10  9  1  0
 11 10  2  0
 11  4  1  0
 13 12  2  0
 14 13  1  0
 15 14  2  0
 15  1  1  0
 16 15  1  0
 17 16  2  0
 17 12  1  0
 18 12  1  0
 19 18  1  0
 20 19  1  0
 22 21  1  0
 22 19  1  0
 23 10  1  0
 24 23  1  0
 25  9  1  0
 26 25  1  0
  1 27  1  0
  3 28  1  0
  3 29  1  0
  8 30  1  0
 11 31  1  0
 13 32  1  0
 14 33  1  0
 16 34  1  0
 17 35  1  0
 18 36  1  0
 18 37  1  0
 19 38  1  6
 20 39  1  0
 20 40  1  0
 20 41  1  0
 21 42  1  0
 21 43  1  0
 21 44  1  0
 22 45  1  0
 22 46  1  0
 24 47  1  0
 24 48  1  0
 24 49  1  0
 26 50  1  0
 26 51  1  0
 26 52  1  0
M  CHG  1  19   1
M  END
>  <score>  (6) 
-7.209

$$$$
=
     RDKit          3D

 52 54  0  0  0  0  0  0  0  0999 V2000
    2.3570   61.2110   71.4320 C   0  0  0  0  0  0  0  0  0  0  0  0
    2.4730   60.8080   72.7040 C   0  0  0  0  0  0  0  0  0  0  0  0
    2.2270   61.5400   73.9990 C   0  0  0  0  0  0  0  0  0  0  0  0
    2.5990   60.5350   75.0480 C   0  0  0  0  0  0  0  0  0  0  0  0
    3.0100   59.3280   74.4860 C   0  0  0  0  0  0  0  0  0  0  0  0
    2.9530   59.4290   73.0260 C   0  0  0  0  0  0  0  0  0  0  0  0
    3.2450   58.5570   72.2340 O   0  0  0  0  0  0  0  0  0  0  0  0
    3.4010   58.2380   75.2420 C   0  0  0  0  0  0  0  0  0  0  0  0
    3.3780   58.3730   76.6330 C   0  0  0  0  0  0  0  0  0  0  0  0
    2.9620   59.5990   77.2280 C   0  0  0  0  0  0  0  0  0  0  0  0
    2.5710   60.6830   76.4260 C   0  0  0  0  0  0  0  0  0  0  0  0
    1.0330   65.1260   70.3230 C   0  0  0  0  0  0  0  0  0  0  0  0
    0.1130   64.1300   70.6880 C   0  0  0  0  0  0  0  0  0  0  0  0
    0.5560   62.8530   71.0400 C   0  0  0  0  0  0  0  0  0  0  0  0
    1.9200   62.5450   71.0250 C   0  0  0  0  0  0  0  0  0  0  0  0
    2.8380   63.5320   70.6570 C   0  0  0  0  0  0  0  0  0  0  0  0
    2.4000   64.8110   70.3040 C   0  0  0  0  0  0  0  0  0  0  0  0
    0.5600   66.5150   69.9860 C   0  0  0  0  0  0  0  0  0  0  0  0
    0.2650   66.7100   68.5100 N   0  0  1  0  0  4  0  0  0  0  0  0
   -1.2160   66.7770   68.2360 C   0  0  0  0  0  0  0  0  0  0  0  0
    1.5990   67.5830   66.5860 C   0  0  0  0  0  0  0  0  0  0  0  0
    1.0240   67.8950   67.9550 C   0  0  0  0  0  0  0  0  0  0  0  0
    2.9750   59.6240   78.6010 O   0  0  0  0  0  0  0  0  0  0  0  0
    3.6390   60.7030   79.2430 C   0  0  0  0  0  0  0  0  0  0  0  0
    3.7380   57.3780   77.5090 O   0  0  0  0  0  0  0  0  0  0  0  0
    2.8100   56.3250   77.7300 C   0  0  0  0  0  0  0  0  0  0  0  0
    2.6075   60.4895   70.6404 H   0  0  0  0  0  0  0  0  0  0  0  0
    2.8615   62.4357   74.0706 H   0  0  0  0  0  0  0  0  0  0  0  0
    1.1915   61.8978   74.0978 H   0  0  0  0  0  0  0  0  0  0  0  0
    3.7186   57.2987   74.7658 H   0  0  0  0  0  0  0  0  0  0  0  0
    2.2489   61.6308   76.8820 H   0  0  0  0  0  0  0  0  0  0  0  0
   -0.9633   64.3569   70.6968 H   0  0  0  0  0  0  0  0  0  0  0  0
   -0.1739   62.0834   71.3314 H   0  0  0  0  0  0  0  0  0  0  0  0
    3.9133   63.3004   70.6451 H   0  0  0  0  0  0  0  0  0  0  0  0
    3.1325   65.5767   70.0090 H   0  0  0  0  0  0  0  0  0  0  0  0
   -0.3593   66.7179   70.5550 H   0  0  0  0  0  0  0  0  0  0  0  0
    1.3732   67.2076   70.2488 H   0  0  0  0  0  0  0  0  0  0  0  0
    0.6053   65.8786   68.0061 H   0  0  0  0  0  0  0  0  0  0  0  0
   -1.7645   66.8018   69.1892 H   0  0  0  0  0  0  0  0  0  0  0  0
   -1.4415   67.6863   67.6595 H   0  0  0  0  0  0  0  0  0  0  0  0
   -1.5226   65.8918   67.6595 H   0  0  0  0  0  0  0  0  0  0  0  0
    2.5604   67.0613   66.7023 H   0  0  0  0  0  0  0  0  0  0  0  0
    0.8984   66.9413   66.0316 H   0  0  0  0  0  0  0  0  0  0  0  0
    1.7551   68.5202   66.0316 H   0  0  0  0  0  0  0  0  0  0  0  0
    1.8460   68.1482   68.6407 H   0  0  0  0  0  0  0  0  0  0  0  0
    0.3278   68.7409   67.8569 H   0  0  0  0  0  0  0  0  0  0  0  0
    3.5647   60.5823   80.3338 H   0  0  0  0  0  0  0  0  0  0  0  0
    4.6982   60.7105   78.9462 H   0  0  0  0  0  0  0  0  0  0  0  0
    3.1683   61.6519   78.9462 H   0  0  0  0  0  0  0  0  0  0  0  0
    2.6772   56.1743   78.8115 H   0  0  0  0  0  0  0  0  0  0  0  0
    1.8434   56.5866   77.2748 H   0  0  0  0  0  0  0  0  0  0  0  0
    3.1910   55.3989   77.2748 H   0  0  0  0  0  0  0  0  0  0  0  0
  2  1  2  0
  3  2  1  0
  4  3  1  0
  5  4  2  0
  6  5  1  0
  6  2  1  0
  7  6  2  0
  8  5  1  0
  9  8  2  0
 10  9  1  0
 11 10  2  0
 11  4  1  0
 13 12  2  0
 14 13  1  0
 15 14  2  0
 15  1  1  0
 16 15  1  0
 17 16  2  0
 17 12  1  0
 18 12  1  0
 19 18  1  0
 20 19  1  0
 22 21  1  0
 22 19  1  0
 23 10  1  0
 24 23  1  0
 25  9  1  0
 26 25  1  0
  1 27  1  0
  3 28  1  0
  3 29  1  0
  8 30  1  0
 11 31  1  0
 13 32  1  0
 14 33  1  0
 16 34  1  0
 17 35  1  0
 18 36  1  0
 18 37  1  0
 19 38  1  6
 20 39  1  0
 20 40  1  0
 20 41  1  0
 21 42  1  0
 21 43  1  0
 21 44  1  0
 22 45  1  0
 22 46  1  0
 24 47  1  0
 24 48  1  0
 24 49  1  0
 26 50  1  0
 26 51  1  0
 26 52  1  0
M  CHG  1  19   1
M  END
>  <score>  (7) 
-7.168

$$$$
=
     RDKit          3D

 52 54  0  0  0  0  0  0  0  0999 V2000
   -1.0210   59.3320   74.0690 C   0  0  0  0  0  0  0  0  0  0  0  0
   -0.4870   60.3290   73.3520 C   0  0  0  0  0  0  0  0  0  0  0  0
   -1.0850   61.6220   72.8580 C   0  0  0  0  0  0  0  0  0  0  0  0
    0.0300   62.2490   72.0740 C   0  0  0  0  0  0  0  0  0  0  0  0
    1.1790   61.4610   72.0870 C   0  0  0  0  0  0  0  0  0  0  0  0
    0.9260   60.2480   72.8680 C   0  0  0  0  0  0  0  0  0  0  0  0
    1.7160   59.3510   73.0780 O   0  0  0  0  0  0  0  0  0  0  0  0
    2.3470   61.8210   71.4410 C   0  0  0  0  0  0  0  0  0  0  0  0
    2.3560   63.0340   70.7470 C   0  0  0  0  0  0  0  0  0  0  0  0
    1.1920   63.8550   70.7210 C   0  0  0  0  0  0  0  0  0  0  0  0
    0.0240   63.4550   71.3910 C   0  0  0  0  0  0  0  0  0  0  0  0
   -5.0800   59.3040   75.4240 C   0  0  0  0  0  0  0  0  0  0  0  0
   -4.5240   60.4520   74.8370 C   0  0  0  0  0  0  0  0  0  0  0  0
   -3.1950   60.4530   74.4060 C   0  0  0  0  0  0  0  0  0  0  0  0
   -2.3980   59.3140   74.5610 C   0  0  0  0  0  0  0  0  0  0  0  0
   -2.9460   58.1720   75.1490 C   0  0  0  0  0  0  0  0  0  0  0  0
   -4.2750   58.1660   75.5810 C   0  0  0  0  0  0  0  0  0  0  0  0
   -6.5250   59.2880   75.8480 C   0  0  0  0  0  0  0  0  0  0  0  0
   -6.8070   58.3290   76.9910 N   0  0  1  0  0  4  0  0  0  0  0  0
   -7.2300   59.0540   78.2430 C   0  0  0  0  0  0  0  0  0  0  0  0
   -8.0410   56.2760   77.7020 C   0  0  0  0  0  0  0  0  0  0  0  0
   -7.7840   57.2540   76.5700 C   0  0  0  0  0  0  0  0  0  0  0  0
    1.3100   65.0250   70.0130 O   0  0  0  0  0  0  0  0  0  0  0  0
    0.4440   66.0990   70.3490 C   0  0  0  0  0  0  0  0  0  0  0  0
    3.4430   63.5200   70.0610 O   0  0  0  0  0  0  0  0  0  0  0  0
    3.7690   62.9070   68.8220 C   0  0  0  0  0  0  0  0  0  0  0  0
   -0.3809   58.4687   74.3036 H   0  0  0  0  0  0  0  0  0  0  0  0
   -1.9577   61.4312   72.2161 H   0  0  0  0  0  0  0  0  0  0  0  0
   -1.4480   62.2644   73.6738 H   0  0  0  0  0  0  0  0  0  0  0  0
    3.2374   61.1758   71.4721 H   0  0  0  0  0  0  0  0  0  0  0  0
   -0.8769   64.0859   71.3740 H   0  0  0  0  0  0  0  0  0  0  0  0
   -5.1386   61.3562   74.7157 H   0  0  0  0  0  0  0  0  0  0  0  0
   -2.7723   61.3561   73.9414 H   0  0  0  0  0  0  0  0  0  0  0  0
   -2.3273   57.2710   75.2730 H   0  0  0  0  0  0  0  0  0  0  0  0
   -4.6931   57.2619   76.0478 H   0  0  0  0  0  0  0  0  0  0  0  0
   -6.8063   60.3026   76.1666 H   0  0  0  0  0  0  0  0  0  0  0  0
   -7.1134   58.9457   74.9839 H   0  0  0  0  0  0  0  0  0  0  0  0
   -5.9261   57.8513   77.2294 H   0  0  0  0  0  0  0  0  0  0  0  0
   -6.8988   58.4863   79.1251 H   0  0  0  0  0  0  0  0  0  0  0  0
   -6.7742   60.0550   78.2588 H   0  0  0  0  0  0  0  0  0  0  0  0
   -8.3257   59.1498   78.2588 H   0  0  0  0  0  0  0  0  0  0  0  0
   -7.9065   56.7878   78.6664 H   0  0  0  0  0  0  0  0  0  0  0  0
   -9.0700   55.8940   77.6300 H   0  0  0  0  0  0  0  0  0  0  0  0
   -7.3327   55.4375   77.6300 H   0  0  0  0  0  0  0  0  0  0  0  0
   -7.3686   56.7076   75.7104 H   0  0  0  0  0  0  0  0  0  0  0  0
   -8.7363   57.7336   76.2995 H   0  0  0  0  0  0  0  0  0  0  0  0
    0.3744   66.1853   71.4434 H   0  0  0  0  0  0  0  0  0  0  0  0
    0.8425   67.0356   69.9319 H   0  0  0  0  0  0  0  0  0  0  0  0
   -0.5558   65.9081   69.9319 H   0  0  0  0  0  0  0  0  0  0  0  0
    4.2780   61.9500   69.0091 H   0  0  0  0  0  0  0  0  0  0  0  0
    2.8478   62.7264   68.2486 H   0  0  0  0  0  0  0  0  0  0  0  0
    4.4337   63.5699   68.2486 H   0  0  0  0  0  0  0  0  0  0  0  0
  2  1  2  0
  3  2  1  0
  4  3  1  0
  5  4  2  0
  6  5  1  0
  6  2  1  0
  7  6  2  0
  8  5  1  0
  9  8  2  0
 10  9  1  0
 11 10  2  0
 11  4  1  0
 13 12  2  0
 14 13  1  0
 15 14  2  0
 15  1  1  0
 16 15  1  0
 17 16  2  0
 17 12  1  0
 18 12  1  0
 19 18  1  0
 20 19  1  0
 22 21  1  0
 22 19  1  0
 23 10  1  0
 24 23  1  0
 25  9  1  0
 26 25  1  0
  1 27  1  0
  3 28  1  0
  3 29  1  0
  8 30  1  0
 11 31  1  0
 13 32  1  0
 14 33  1  0
 16 34  1  0
 17 35  1  0
 18 36  1  0
 18 37  1  0
 19 38  1  1
 20 39  1  0
 20 40  1  0
 20 41  1  0
 21 42  1  0
 21 43  1  0
 21 44  1  0
 22 45  1  0
 22 46  1  0
 24 47  1  0
 24 48  1  0
 24 49  1  0
 26 50  1  0
 26 51  1  0
 26 52  1  0
M  CHG  1  19   1
M  END
>  <score>  (8) 
-6.721

$$$$
