=
     RDKit          3D

 28 29  0  0  0  0  0  0  0  0999 V2000
    0.7520   66.8610   66.5180 O   0  0  0  0  0  0  0  0  0  0  0  0
    0.9780   68.0100   66.1430 C   0  0  0  0  0  0  0  0  0  0  0  0
    0.8290   68.3910   64.7170 C   0  0  0  0  0  0  0  0  0  0  0  0
    1.9190   68.3610   63.8370 C   0  0  0  0  0  0  0  0  0  0  0  0
    1.7380   68.7100   62.4970 C   0  0  0  0  0  0  0  0  0  0  0  0
    3.2120   68.6650   61.3130 Br  0  0  0  0  0  0  0  0  0  0  0  0
    0.4850   69.0900   62.0200 C   0  0  0  0  0  0  0  0  0  0  0  0
   -0.6020   69.1230   62.8910 C   0  0  0  0  0  0  0  0  0  0  0  0
   -0.4310   68.7750   64.2300 C   0  0  0  0  0  0  0  0  0  0  0  0
   -1.5550   68.8320   65.0110 O   0  0  0  0  0  0  0  0  0  0  0  0
    1.4040   69.0280   67.1700 C   0  0  0  0  0  0  0  0  0  0  0  0
    0.5640   69.4460   67.9590 O   0  0  0  0  0  0  0  0  0  0  0  0
    2.8150   69.4740   67.2320 C   0  0  0  0  0  0  0  0  0  0  0  0
    3.5990   69.3140   66.0800 C   0  0  0  0  0  0  0  0  0  0  0  0
    4.9290   69.7310   66.0850 C   0  0  0  0  0  0  0  0  0  0  0  0
    5.9810   69.5250   64.5290 Br  0  0  0  0  0  0  0  0  0  0  0  0
    5.4900   70.2980   67.2280 C   0  0  0  0  0  0  0  0  0  0  0  0
    4.7170   70.4430   68.3820 C   0  0  0  0  0  0  0  0  0  0  0  0
    3.3850   70.0270   68.3840 C   0  0  0  0  0  0  0  0  0  0  0  0
    2.6560   70.1260   69.5350 O   0  0  0  0  0  0  0  0  0  0  0  0
    2.9137   68.0636   64.2004 H   0  0  0  0  0  0  0  0  0  0  0  0
    0.3549   69.3623   60.9622 H   0  0  0  0  0  0  0  0  0  0  0  0
   -1.5940   69.4233   62.5225 H   0  0  0  0  0  0  0  0  0  0  0  0
   -1.5029   68.5974   65.9714 H   0  0  0  0  0  0  0  0  0  0  0  0
    3.1658   68.8611   65.1760 H   0  0  0  0  0  0  0  0  0  0  0  0
    6.5386   70.6303   67.2211 H   0  0  0  0  0  0  0  0  0  0  0  0
    5.1575   70.8845   69.2881 H   0  0  0  0  0  0  0  0  0  0  0  0
    1.7101   69.8340   69.5485 H   0  0  0  0  0  0  0  0  0  0  0  0
  2  1  2  0
  3  2  1  0
  4  3  2  0
  5  4  1  0
  6  5  1  0
  7  5  2  0
  8  7  1  0
  9  8  2  0
  9  3  1  0
 10  9  1  0
 11  2  1  0
 12 11  2  0
 13 11  1  0
 14 13  2  0
 15 14  1  0
 16 15  1  0
 17 15  2  0
 18 17  1  0
 19 18  2  0
 19 13  1  0
 20 19  1  0
  4 21  1  0
  7 22  1  0
  8 23  1  0
 10 24  1  0
 14 25  1  0
 17 26  1  0
 18 27  1  0
 20 28  1  0
M  END
>  <score>  (1) 
-9.663

$$$$
=
     RDKit          3D

 28 29  0  0  0  0  0  0  0  0999 V2000
    0.4990   68.1870   66.3540 O   0  0  0  0  0  0  0  0  0  0  0  0
    1.5430   68.6650   65.9140 C   0  0  0  0  0  0  0  0  0  0  0  0
    2.5160   69.3330   66.8130 C   0  0  0  0  0  0  0  0  0  0  0  0
    3.8770   69.4040   66.4890 C   0  0  0  0  0  0  0  0  0  0  0  0
    4.7610   70.0560   67.3510 C   0  0  0  0  0  0  0  0  0  0  0  0
    6.5970   70.1520   66.9070 Br  0  0  0  0  0  0  0  0  0  0  0  0
    4.3090   70.6380   68.5340 C   0  0  0  0  0  0  0  0  0  0  0  0
    2.9560   70.5690   68.8620 C   0  0  0  0  0  0  0  0  0  0  0  0
    2.0660   69.9210   68.0060 C   0  0  0  0  0  0  0  0  0  0  0  0
    0.7560   69.9060   68.4070 O   0  0  0  0  0  0  0  0  0  0  0  0
    1.8170   68.5490   64.4360 C   0  0  0  0  0  0  0  0  0  0  0  0
    1.2500   69.3240   63.6750 O   0  0  0  0  0  0  0  0  0  0  0  0
    2.7800   67.5400   63.9380 C   0  0  0  0  0  0  0  0  0  0  0  0
    2.8700   66.3260   64.6330 C   0  0  0  0  0  0  0  0  0  0  0  0
    3.7520   65.3400   64.1950 C   0  0  0  0  0  0  0  0  0  0  0  0
    3.8620   63.7000   65.1270 Br  0  0  0  0  0  0  0  0  0  0  0  0
    4.5530   65.5530   63.0760 C   0  0  0  0  0  0  0  0  0  0  0  0
    4.4810   66.7680   62.3900 C   0  0  0  0  0  0  0  0  0  0  0  0
    3.6000   67.7590   62.8250 C   0  0  0  0  0  0  0  0  0  0  0  0
    3.5770   68.9620   62.1770 O   0  0  0  0  0  0  0  0  0  0  0  0
    4.2478   68.9479   65.5592 H   0  0  0  0  0  0  0  0  0  0  0  0
    5.0157   71.1487   69.2047 H   0  0  0  0  0  0  0  0  0  0  0  0
    2.5910   71.0248   69.7942 H   0  0  0  0  0  0  0  0  0  0  0  0
    0.0716   69.4625   67.8458 H   0  0  0  0  0  0  0  0  0  0  0  0
    2.2459   66.1521   65.5220 H   0  0  0  0  0  0  0  0  0  0  0  0
    5.2410   64.7663   62.7329 H   0  0  0  0  0  0  0  0  0  0  0  0
    5.1169   66.9429   61.5096 H   0  0  0  0  0  0  0  0  0  0  0  0
    2.9566   69.6734   62.4757 H   0  0  0  0  0  0  0  0  0  0  0  0
  2  1  2  0
  3  2  1  0
  4  3  2  0
  5  4  1  0
  6  5  1  0
  7  5  2  0
  8  7  1  0
  9  8  2  0
  9  3  1  0
 10  9  1  0
 11  2  1  0
 12 11  2  0
 13 11  1  0
 14 13  2  0
 15 14  1  0
 16 15  1  0
 17 15  2  0
 18 17  1  0
 19 18  2  0
 19 13  1  0
 20 19  1  0
  4 21  1  0
  7 22  1  0
  8 23  1  0
 10 24  1  0
 14 25  1  0
 17 26  1  0
 18 27  1  0
 20 28  1  0
M  END
>  <score>  (2) 
-9.611

$$$$
=
     RDKit          3D

 28 29  0  0  0  0  0  0  0  0999 V2000
    0.5640   69.5930   67.9660 O   0  0  0  0  0  0  0  0  0  0  0  0
    1.3560   69.0890   67.1730 C   0  0  0  0  0  0  0  0  0  0  0  0
    2.7890   69.4730   67.1770 C   0  0  0  0  0  0  0  0  0  0  0  0
    3.5850   69.3290   66.0320 C   0  0  0  0  0  0  0  0  0  0  0  0
    4.9260   69.7170   66.0670 C   0  0  0  0  0  0  0  0  0  0  0  0
    5.9950   69.5230   64.5190 Br  0  0  0  0  0  0  0  0  0  0  0  0
    5.4880   70.2460   67.2270 C   0  0  0  0  0  0  0  0  0  0  0  0
    4.7010   70.3910   68.3690 C   0  0  0  0  0  0  0  0  0  0  0  0
    3.3610   70.0070   68.3430 C   0  0  0  0  0  0  0  0  0  0  0  0
    2.6640   70.1900   69.5080 O   0  0  0  0  0  0  0  0  0  0  0  0
    0.8390   68.0630   66.1970 C   0  0  0  0  0  0  0  0  0  0  0  0
    0.5430   66.9520   66.6230 O   0  0  0  0  0  0  0  0  0  0  0  0
    0.6630   68.4180   64.7700 C   0  0  0  0  0  0  0  0  0  0  0  0
    1.7970   68.3790   63.9460 C   0  0  0  0  0  0  0  0  0  0  0  0
    1.6810   68.6920   62.5930 C   0  0  0  0  0  0  0  0  0  0  0  0
    3.2070   68.6290   61.4810 Br  0  0  0  0  0  0  0  0  0  0  0  0
    0.4480   69.0520   62.0530 C   0  0  0  0  0  0  0  0  0  0  0  0
   -0.6810   69.1080   62.8730 C   0  0  0  0  0  0  0  0  0  0  0  0
   -0.5710   68.7970   64.2300 C   0  0  0  0  0  0  0  0  0  0  0  0
   -1.6710   68.9070   65.0310 O   0  0  0  0  0  0  0  0  0  0  0  0
    3.1549   68.9119   65.1095 H   0  0  0  0  0  0  0  0  0  0  0  0
    6.5458   70.5474   67.2419 H   0  0  0  0  0  0  0  0  0  0  0  0
    5.1368   70.8077   69.2890 H   0  0  0  0  0  0  0  0  0  0  0  0
    1.7079   69.9381   69.5576 H   0  0  0  0  0  0  0  0  0  0  0  0
    2.7751   68.1022   64.3663 H   0  0  0  0  0  0  0  0  0  0  0  0
    0.3641   69.2917   60.9827 H   0  0  0  0  0  0  0  0  0  0  0  0
   -1.6550   69.3965   62.4509 H   0  0  0  0  0  0  0  0  0  0  0  0
   -1.6055   68.6893   65.9945 H   0  0  0  0  0  0  0  0  0  0  0  0
  2  1  2  0
  3  2  1  0
  4  3  2  0
  5  4  1  0
  6  5  1  0
  7  5  2  0
  8  7  1  0
  9  8  2  0
  9  3  1  0
 10  9  1  0
 11  2  1  0
 12 11  2  0
 13 11  1  0
 14 13  2  0
 15 14  1  0
 16 15  1  0
 17 15  2  0
 18 17  1  0
 19 18  2  0
 19 13  1  0
 20 19  1  0
  4 21  1  0
  7 22  1  0
  8 23  1  0
 10 24  1  0
 14 25  1  0
 17 26  1  0
 18 27  1  0
 20 28  1  0
M  END
>  <score>  (3) 
-9.519

$$$$
=
     RDKit          3D

 28 29  0  0  0  0  0  0  0  0999 V2000
    3.2390   67.1290   64.4860 O   0  0  0  0  0  0  0  0  0  0  0  0
    2.8940   68.2010   64.9780 C   0  0  0  0  0  0  0  0  0  0  0  0
    3.8590   69.0440   65.7260 C   0  0  0  0  0  0  0  0  0  0  0  0
    3.6030   69.4510   67.0430 C   0  0  0  0  0  0  0  0  0  0  0  0
    4.5420   70.2300   67.7220 C   0  0  0  0  0  0  0  0  0  0  0  0
    4.1930   70.7750   69.4990 Br  0  0  0  0  0  0  0  0  0  0  0  0
    5.7340   70.6110   67.1080 C   0  0  0  0  0  0  0  0  0  0  0  0
    5.9930   70.2100   65.7990 C   0  0  0  0  0  0  0  0  0  0  0  0
    5.0610   69.4310   65.1130 C   0  0  0  0  0  0  0  0  0  0  0  0
    5.4020   69.0810   63.8340 O   0  0  0  0  0  0  0  0  0  0  0  0
    1.4650   68.6460   64.7970 C   0  0  0  0  0  0  0  0  0  0  0  0
    1.1790   69.2960   63.7990 O   0  0  0  0  0  0  0  0  0  0  0  0
    0.4380   68.2650   65.7940 C   0  0  0  0  0  0  0  0  0  0  0  0
    0.8760   67.6630   66.9820 C   0  0  0  0  0  0  0  0  0  0  0  0
   -0.0520   67.2990   67.9570 C   0  0  0  0  0  0  0  0  0  0  0  0
    0.5400   66.4990   69.5620 Br  0  0  0  0  0  0  0  0  0  0  0  0
   -1.4130   67.5200   67.7570 C   0  0  0  0  0  0  0  0  0  0  0  0
   -1.8550   68.1030   66.5680 C   0  0  0  0  0  0  0  0  0  0  0  0
   -0.9310   68.4690   65.5870 C   0  0  0  0  0  0  0  0  0  0  0  0
   -1.3810   68.9900   64.4080 O   0  0  0  0  0  0  0  0  0  0  0  0
    2.6662   69.1578   67.5394 H   0  0  0  0  0  0  0  0  0  0  0  0
    6.4659   71.2246   67.6537 H   0  0  0  0  0  0  0  0  0  0  0  0
    6.9310   70.5072   65.3072 H   0  0  0  0  0  0  0  0  0  0  0  0
    4.7855   68.5286   63.2909 H   0  0  0  0  0  0  0  0  0  0  0  0
    1.9482   67.4784   67.1444 H   0  0  0  0  0  0  0  0  0  0  0  0
   -2.1377   67.2357   68.5342 H   0  0  0  0  0  0  0  0  0  0  0  0
   -2.9292   68.2738   66.4042 H   0  0  0  0  0  0  0  0  0  0  0  0
   -0.7357   69.2532   63.7048 H   0  0  0  0  0  0  0  0  0  0  0  0
  2  1  2  0
  3  2  1  0
  4  3  2  0
  5  4  1  0
  6  5  1  0
  7  5  2  0
  8  7  1  0
  9  8  2  0
  9  3  1  0
 10  9  1  0
 11  2  1  0
 12 11  2  0
 13 11  1  0
 14 13  2  0
 15 14  1  0
 16 15  1  0
 17 15  2  0
 18 17  1  0
 19 18  2  0
 19 13  1  0
 20 19  1  0
  4 21  1  0
  7 22  1  0
  8 23  1  0
 10 24  1  0
 14 25  1  0
 17 26  1  0
 18 27  1  0
 20 28  1  0
M  END
>  <score>  (4) 
-9.462

$$$$
=
     RDKit          3D

 28 29  0  0  0  0  0  0  0  0999 V2000
    1.0520   69.3840   64.1200 O   0  0  0  0  0  0  0  0  0  0  0  0
    1.4160   68.6190   65.0110 C   0  0  0  0  0  0  0  0  0  0  0  0
    0.4670   68.1500   66.0500 C   0  0  0  0  0  0  0  0  0  0  0  0
    0.9220   67.5690   67.2420 C   0  0  0  0  0  0  0  0  0  0  0  0
    0.0000   67.1550   68.2060 C   0  0  0  0  0  0  0  0  0  0  0  0
    0.6190   66.3740   69.8140 Br  0  0  0  0  0  0  0  0  0  0  0  0
   -1.3690   67.3100   68.0000 C   0  0  0  0  0  0  0  0  0  0  0  0
   -1.8270   67.8860   66.8160 C   0  0  0  0  0  0  0  0  0  0  0  0
   -0.9140   68.3030   65.8490 C   0  0  0  0  0  0  0  0  0  0  0  0
   -1.4530   68.8620   64.7200 O   0  0  0  0  0  0  0  0  0  0  0  0
    2.8520   68.1600   65.0180 C   0  0  0  0  0  0  0  0  0  0  0  0
    3.1350   67.1210   64.4340 O   0  0  0  0  0  0  0  0  0  0  0  0
    3.8880   68.9780   65.6900 C   0  0  0  0  0  0  0  0  0  0  0  0
    3.6120   69.4460   66.9820 C   0  0  0  0  0  0  0  0  0  0  0  0
    4.5610   70.2080   67.6610 C   0  0  0  0  0  0  0  0  0  0  0  0
    4.1920   70.8270   69.4070 Br  0  0  0  0  0  0  0  0  0  0  0  0
    5.7810   70.5180   67.0620 C   0  0  0  0  0  0  0  0  0  0  0  0
    6.0530   70.0690   65.7680 C   0  0  0  0  0  0  0  0  0  0  0  0
    5.1060   69.3060   65.0830 C   0  0  0  0  0  0  0  0  0  0  0  0
    5.3640   68.9180   63.7990 O   0  0  0  0  0  0  0  0  0  0  0  0
    2.0002   67.4398   67.4173 H   0  0  0  0  0  0  0  0  0  0  0  0
   -2.0846   66.9797   68.7673 H   0  0  0  0  0  0  0  0  0  0  0  0
   -2.9065   68.0111   66.6453 H   0  0  0  0  0  0  0  0  0  0  0  0
   -0.8602   69.1795   63.9934 H   0  0  0  0  0  0  0  0  0  0  0  0
    2.6487   69.2124   67.4589 H   0  0  0  0  0  0  0  0  0  0  0  0
    6.5273   71.1146   67.6071 H   0  0  0  0  0  0  0  0  0  0  0  0
    7.0120   70.3162   65.2893 H   0  0  0  0  0  0  0  0  0  0  0  0
    4.7002   68.3766   63.3026 H   0  0  0  0  0  0  0  0  0  0  0  0
  2  1  2  0
  3  2  1  0
  4  3  2  0
  5  4  1  0
  6  5  1  0
  7  5  2  0
  8  7  1  0
  9  8  2  0
  9  3  1  0
 10  9  1  0
 11  2  1  0
 12 11  2  0
 13 11  1  0
 14 13  2  0
 15 14  1  0
 16 15  1  0
 17 15  2  0
 18 17  1  0
 19 18  2  0
 19 13  1  0
 20 19  1  0
  4 21  1  0
  7 22  1  0
  8 23  1  0
 10 24  1  0
 14 25  1  0
 17 26  1  0
 18 27  1  0
 20 28  1  0
M  END
>  <score>  (5) 
-9.379

$$$$
=
     RDKit          3D

 28 29  0  0  0  0  0  0  0  0999 V2000
    0.4950   68.8850   66.5300 O   0  0  0  0  0  0  0  0  0  0  0  0
    1.7000   68.6890   66.3840 C   0  0  0  0  0  0  0  0  0  0  0  0
    2.6990   69.4590   67.1660 C   0  0  0  0  0  0  0  0  0  0  0  0
    4.0580   69.4470   66.8240 C   0  0  0  0  0  0  0  0  0  0  0  0
    4.9680   70.1970   67.5720 C   0  0  0  0  0  0  0  0  0  0  0  0
    6.8000   70.1780   67.1050 Br  0  0  0  0  0  0  0  0  0  0  0  0
    4.5440   70.9600   68.6580 C   0  0  0  0  0  0  0  0  0  0  0  0
    3.1930   70.9760   69.0030 C   0  0  0  0  0  0  0  0  0  0  0  0
    2.2780   70.2300   68.2610 C   0  0  0  0  0  0  0  0  0  0  0  0
    0.9730   70.3090   68.6690 O   0  0  0  0  0  0  0  0  0  0  0  0
    2.1420   67.6400   65.3950 C   0  0  0  0  0  0  0  0  0  0  0  0
    2.2600   66.4850   65.7860 O   0  0  0  0  0  0  0  0  0  0  0  0
    2.3870   68.0090   63.9820 C   0  0  0  0  0  0  0  0  0  0  0  0
    1.3530   68.6570   63.2900 C   0  0  0  0  0  0  0  0  0  0  0  0
    1.5410   69.0360   61.9620 C   0  0  0  0  0  0  0  0  0  0  0  0
    0.1520   69.9200   61.0350 Br  0  0  0  0  0  0  0  0  0  0  0  0
    2.7440   68.7690   61.3120 C   0  0  0  0  0  0  0  0  0  0  0  0
    3.7690   68.1080   61.9920 C   0  0  0  0  0  0  0  0  0  0  0  0
    3.5880   67.7250   63.3220 C   0  0  0  0  0  0  0  0  0  0  0  0
    4.5780   67.0330   63.9580 O   0  0  0  0  0  0  0  0  0  0  0  0
    4.4067   68.8488   65.9693 H   0  0  0  0  0  0  0  0  0  0  0  0
    5.2706   71.5462   69.2397 H   0  0  0  0  0  0  0  0  0  0  0  0
    2.8498   71.5759   69.8588 H   0  0  0  0  0  0  0  0  0  0  0  0
    0.2719   69.8039   68.1858 H   0  0  0  0  0  0  0  0  0  0  0  0
    0.3975   68.8652   63.7936 H   0  0  0  0  0  0  0  0  0  0  0  0
    2.8860   69.0781   60.2659 H   0  0  0  0  0  0  0  0  0  0  0  0
    4.7178   67.8894   61.4802 H   0  0  0  0  0  0  0  0  0  0  0  0
    4.4610   66.7560   64.9012 H   0  0  0  0  0  0  0  0  0  0  0  0
  2  1  2  0
  3  2  1  0
  4  3  2  0
  5  4  1  0
  6  5  1  0
  7  5  2  0
  8  7  1  0
  9  8  2  0
  9  3  1  0
 10  9  1  0
 11  2  1  0
 12 11  2  0
 13 11  1  0
 14 13  2  0
 15 14  1  0
 16 15  1  0
 17 15  2  0
 18 17  1  0
 19 18  2  0
 19 13  1  0
 20 19  1  0
  4 21  1  0
  7 22  1  0
  8 23  1  0
 10 24  1  0
 14 25  1  0
 17 26  1  0
 18 27  1  0
 20 28  1  0
M  END
>  <score>  (6) 
-9.328

$$$$
=
     RDKit          3D

 28 29  0  0  0  0  0  0  0  0999 V2000
    1.5590   69.6660   68.1880 O   0  0  0  0  0  0  0  0  0  0  0  0
    2.0820   68.9790   67.3130 C   0  0  0  0  0  0  0  0  0  0  0  0
    3.3930   69.3530   66.7290 C   0  0  0  0  0  0  0  0  0  0  0  0
    3.6850   69.1130   65.3800 C   0  0  0  0  0  0  0  0  0  0  0  0
    4.9230   69.4940   64.8600 C   0  0  0  0  0  0  0  0  0  0  0  0
    5.3110   69.1700   63.0370 Br  0  0  0  0  0  0  0  0  0  0  0  0
    5.8790   70.1110   65.6660 C   0  0  0  0  0  0  0  0  0  0  0  0
    5.5940   70.3510   67.0090 C   0  0  0  0  0  0  0  0  0  0  0  0
    4.3590   69.9750   67.5360 C   0  0  0  0  0  0  0  0  0  0  0  0
    4.1660   70.2540   68.8630 O   0  0  0  0  0  0  0  0  0  0  0  0
    1.3610   67.7380   66.8510 C   0  0  0  0  0  0  0  0  0  0  0  0
    2.0230   66.8240   66.3730 O   0  0  0  0  0  0  0  0  0  0  0  0
   -0.1070   67.6290   67.0120 C   0  0  0  0  0  0  0  0  0  0  0  0
   -0.9150   68.3410   66.1140 C   0  0  0  0  0  0  0  0  0  0  0  0
   -2.3020   68.2600   66.2170 C   0  0  0  0  0  0  0  0  0  0  0  0
   -3.3900   69.2100   64.9990 Br  0  0  0  0  0  0  0  0  0  0  0  0
   -2.8950   67.4840   67.2110 C   0  0  0  0  0  0  0  0  0  0  0  0
   -2.0940   66.7870   68.1190 C   0  0  0  0  0  0  0  0  0  0  0  0
   -0.7040   66.8650   68.0220 C   0  0  0  0  0  0  0  0  0  0  0  0
    0.0670   66.2220   68.9470 O   0  0  0  0  0  0  0  0  0  0  0  0
    2.9410   68.6258   64.7326 H   0  0  0  0  0  0  0  0  0  0  0  0
    6.8513   70.4063   65.2448 H   0  0  0  0  0  0  0  0  0  0  0  0
    6.3425   70.8365   67.6525 H   0  0  0  0  0  0  0  0  0  0  0  0
    3.3110   70.0133   69.3002 H   0  0  0  0  0  0  0  0  0  0  0  0
   -0.4552   68.9615   65.3307 H   0  0  0  0  0  0  0  0  0  0  0  0
   -3.9910   67.4204   67.2805 H   0  0  0  0  0  0  0  0  0  0  0  0
   -2.5580   66.1780   68.9088 H   0  0  0  0  0  0  0  0  0  0  0  0
    1.0541   66.2702   68.8883 H   0  0  0  0  0  0  0  0  0  0  0  0
  2  1  2  0
  3  2  1  0
  4  3  2  0
  5  4  1  0
  6  5  1  0
  7  5  2  0
  8  7  1  0
  9  8  2  0
  9  3  1  0
 10  9  1  0
 11  2  1  0
 12 11  2  0
 13 11  1  0
 14 13  2  0
 15 14  1  0
 16 15  1  0
 17 15  2  0
 18 17  1  0
 19 18  2  0
 19 13  1  0
 20 19  1  0
  4 21  1  0
  7 22  1  0
  8 23  1  0
 10 24  1  0
 14 25  1  0
 17 26  1  0
 18 27  1  0
 20 28  1  0
M  END
>  <score>  (7) 
-8.776

$$$$
=
     RDKit          3D

 28 29  0  0  0  0  0  0  0  0999 V2000
    2.8290   69.4910   65.6250 O   0  0  0  0  0  0  0  0  0  0  0  0
    2.2720   68.6290   64.9500 C   0  0  0  0  0  0  0  0  0  0  0  0
    3.0520   67.5550   64.2870 C   0  0  0  0  0  0  0  0  0  0  0  0
    3.1030   66.2580   64.8170 C   0  0  0  0  0  0  0  0  0  0  0  0
    3.8330   65.2680   64.1570 C   0  0  0  0  0  0  0  0  0  0  0  0
    3.8960   63.5200   64.8750 Br  0  0  0  0  0  0  0  0  0  0  0  0
    4.5150   65.5500   62.9750 C   0  0  0  0  0  0  0  0  0  0  0  0
    4.4680   66.8380   62.4430 C   0  0  0  0  0  0  0  0  0  0  0  0
    3.7410   67.8330   63.0960 C   0  0  0  0  0  0  0  0  0  0  0  0
    3.7480   69.0660   62.5000 O   0  0  0  0  0  0  0  0  0  0  0  0
    0.7710   68.6820   64.8170 C   0  0  0  0  0  0  0  0  0  0  0  0
    0.2940   69.0810   63.7610 O   0  0  0  0  0  0  0  0  0  0  0  0
   -0.0890   68.2240   65.9320 C   0  0  0  0  0  0  0  0  0  0  0  0
    0.5400   67.6440   67.0430 C   0  0  0  0  0  0  0  0  0  0  0  0
   -0.2260   67.2100   68.1240 C   0  0  0  0  0  0  0  0  0  0  0  0
    0.6240   66.4400   69.6260 Br  0  0  0  0  0  0  0  0  0  0  0  0
   -1.6130   67.3380   68.1060 C   0  0  0  0  0  0  0  0  0  0  0  0
   -2.2450   67.8990   66.9940 C   0  0  0  0  0  0  0  0  0  0  0  0
   -1.4840   68.3350   65.9080 C   0  0  0  0  0  0  0  0  0  0  0  0
   -2.1180   68.8320   64.8060 O   0  0  0  0  0  0  0  0  0  0  0  0
    2.5697   66.0214   65.7495 H   0  0  0  0  0  0  0  0  0  0  0  0
    5.0871   64.7612   62.4646 H   0  0  0  0  0  0  0  0  0  0  0  0
    5.0033   67.0688   61.5101 H   0  0  0  0  0  0  0  0  0  0  0  0
    3.2518   69.8175   62.9113 H   0  0  0  0  0  0  0  0  0  0  0  0
    1.6341   67.5318   67.0615 H   0  0  0  0  0  0  0  0  0  0  0  0
   -2.2092   66.9980   68.9656 H   0  0  0  0  0  0  0  0  0  0  0  0
   -3.3404   67.9971   66.9740 H   0  0  0  0  0  0  0  0  0  0  0  0
   -1.5892   69.1443   64.0295 H   0  0  0  0  0  0  0  0  0  0  0  0
  2  1  2  0
  3  2  1  0
  4  3  2  0
  5  4  1  0
  6  5  1  0
  7  5  2  0
  8  7  1  0
  9  8  2  0
  9  3  1  0
 10  9  1  0
 11  2  1  0
 12 11  2  0
 13 11  1  0
 14 13  2  0
 15 14  1  0
 16 15  1  0
 17 15  2  0
 18 17  1  0
 19 18  2  0
 19 13  1  0
 20 19  1  0
  4 21  1  0
  7 22  1  0
  8 23  1  0
 10 24  1  0
 14 25  1  0
 17 26  1  0
 18 27  1  0
 20 28  1  0
M  END
>  <score>  (8) 
-8.561

$$$$
=
     RDKit          3D

 28 29  0  0  0  0  0  0  0  0999 V2000
    3.6800   58.5910   70.6210 O   0  0  0  0  0  0  0  0  0  0  0  0
    3.5010   59.4420   71.4890 C   0  0  0  0  0  0  0  0  0  0  0  0
    3.5630   60.8890   71.1660 C   0  0  0  0  0  0  0  0  0  0  0  0
    2.4000   61.6650   71.0740 C   0  0  0  0  0  0  0  0  0  0  0  0
    2.4980   63.0280   70.7850 C   0  0  0  0  0  0  0  0  0  0  0  0
    0.9260   64.0720   70.6640 Br  0  0  0  0  0  0  0  0  0  0  0  0
    3.7390   63.6300   70.5860 C   0  0  0  0  0  0  0  0  0  0  0  0
    4.8990   62.8620   70.6760 C   0  0  0  0  0  0  0  0  0  0  0  0
    4.8110   61.5010   70.9650 C   0  0  0  0  0  0  0  0  0  0  0  0
    6.0010   60.8270   71.0370 O   0  0  0  0  0  0  0  0  0  0  0  0
    3.2060   58.9810   72.8940 C   0  0  0  0  0  0  0  0  0  0  0  0
    4.1320   58.9230   73.6950 O   0  0  0  0  0  0  0  0  0  0  0  0
    1.8180   58.6460   73.2890 C   0  0  0  0  0  0  0  0  0  0  0  0
    0.8830   59.6900   73.3290 C   0  0  0  0  0  0  0  0  0  0  0  0
   -0.4380   59.4220   73.6820 C   0  0  0  0  0  0  0  0  0  0  0  0
   -1.7000   60.8280   73.7230 Br  0  0  0  0  0  0  0  0  0  0  0  0
   -0.8370   58.1270   74.0040 C   0  0  0  0  0  0  0  0  0  0  0  0
    0.0950   57.0870   73.9830 C   0  0  0  0  0  0  0  0  0  0  0  0
    1.4200   57.3490   73.6310 C   0  0  0  0  0  0  0  0  0  0  0  0
    2.3330   56.3330   73.6650 O   0  0  0  0  0  0  0  0  0  0  0  0
    1.4139   61.2027   71.2287 H   0  0  0  0  0  0  0  0  0  0  0  0
    3.8029   64.7045   70.3593 H   0  0  0  0  0  0  0  0  0  0  0  0
    5.8824   63.3293   70.5192 H   0  0  0  0  0  0  0  0  0  0  0  0
    6.0095   59.8578   71.2387 H   0  0  0  0  0  0  0  0  0  0  0  0
    1.1911   60.7168   73.0826 H   0  0  0  0  0  0  0  0  0  0  0  0
   -1.8838   57.9238   74.2742 H   0  0  0  0  0  0  0  0  0  0  0  0
   -0.2144   56.0640   74.2432 H   0  0  0  0  0  0  0  0  0  0  0  0
    3.2758   56.5062   73.4176 H   0  0  0  0  0  0  0  0  0  0  0  0
  2  1  2  0
  3  2  1  0
  4  3  2  0
  5  4  1  0
  6  5  1  0
  7  5  2  0
  8  7  1  0
  9  8  2  0
  9  3  1  0
 10  9  1  0
 11  2  1  0
 12 11  2  0
 13 11  1  0
 14 13  2  0
 15 14  1  0
 16 15  1  0
 17 15  2  0
 18 17  1  0
 19 18  2  0
 19 13  1  0
 20 19  1  0
  4 21  1  0
  7 22  1  0
  8 23  1  0
 10 24  1  0
 14 25  1  0
 17 26  1  0
 18 27  1  0
 20 28  1  0
M  END
>  <score>  (9) 
-8.332

$$$$
