=
     RDKit          3D

 50 52  0  0  0  0  0  0  0  0999 V2000
    0.8810   66.9710   69.4350 C   0  0  0  0  0  0  0  0  0  0  0  0
    1.1340   67.3140   67.9490 C   0  0  1  0  0  0  0  0  0  0  0  0
   -0.0320   67.0190   66.9980 C   0  0  0  0  0  0  0  0  0  0  0  0
   -1.2030   67.9850   67.1600 C   0  0  0  0  0  0  0  0  0  0  0  0
   -0.7510   69.4370   67.0550 C   0  0  0  0  0  0  0  0  0  0  0  0
    0.3920   69.7450   68.0080 C   0  0  0  0  0  0  0  0  0  0  0  0
    1.5450   68.7860   67.8030 N   0  0  2  0  0  4  0  0  0  0  0  0
    2.3580   69.0440   66.5430 C   0  0  0  0  0  0  0  0  0  0  0  0
    3.7410   69.5660   66.8320 C   0  0  0  0  0  0  0  0  0  0  0  0
    4.0420   70.1310   68.0800 C   0  0  0  0  0  0  0  0  0  0  0  0
    5.3320   70.5880   68.3550 C   0  0  0  0  0  0  0  0  0  0  0  0
    6.3290   70.4870   67.3880 C   0  0  0  0  0  0  0  0  0  0  0  0
    6.0410   69.9350   66.1420 C   0  0  0  0  0  0  0  0  0  0  0  0
    4.7530   69.4760   65.8630 C   0  0  0  0  0  0  0  0  0  0  0  0
    0.1830   65.7270   69.5530 O   0  0  0  0  0  0  0  0  0  0  0  0
    2.3650   62.6070   71.1250 C   0  0  0  0  0  0  0  0  0  0  0  0
    0.9800   62.6410   71.2900 C   0  0  0  0  0  0  0  0  0  0  0  0
    0.2530   63.7000   70.7460 C   0  0  0  0  0  0  0  0  0  0  0  0
    0.9340   64.6830   70.0450 C   0  0  0  0  0  0  0  0  0  0  0  0
    2.2690   64.6880   69.8690 N   0  0  0  0  0  0  0  0  0  0  0  0
    2.9540   63.6440   70.4080 C   0  0  0  0  0  0  0  0  0  0  0  0
    3.2340   61.5350   71.6480 C   0  0  0  0  0  0  0  0  0  0  0  0
    3.9150   61.7060   72.6530 O   0  0  0  0  0  0  0  0  0  0  0  0
    3.8790   60.1190   69.7900 N   0  0  0  0  0  0  0  0  0  0  0  0
    3.3420   60.2080   70.9630 C   0  0  0  0  0  0  0  0  0  0  0  0
    3.8500   58.7780   69.3910 O   0  0  0  0  0  0  0  0  0  0  0  0
    1.8458   66.8952   69.9579 H   0  0  0  0  0  0  0  0  0  0  0  0
    0.2669   67.7661   69.8830 H   0  0  0  0  0  0  0  0  0  0  0  0
    1.9475   66.6392   67.6442 H   0  0  0  0  0  0  0  0  0  0  0  0
    0.3357   67.0865   65.9635 H   0  0  0  0  0  0  0  0  0  0  0  0
   -0.4039   66.0127   67.2411 H   0  0  0  0  0  0  0  0  0  0  0  0
   -1.9435   67.7837   66.3719 H   0  0  0  0  0  0  0  0  0  0  0  0
   -1.6399   67.8319   68.1578 H   0  0  0  0  0  0  0  0  0  0  0  0
   -0.4177   69.6321   66.0250 H   0  0  0  0  0  0  0  0  0  0  0  0
   -1.6022   70.0794   67.3247 H   0  0  0  0  0  0  0  0  0  0  0  0
    0.7426   70.7721   67.8286 H   0  0  0  0  0  0  0  0  0  0  0  0
    0.0260   69.6364   69.0396 H   0  0  0  0  0  0  0  0  0  0  0  0
    2.1893   68.9886   68.5806 H   0  0  0  0  0  0  0  0  0  0  0  0
    2.4489   68.1004   65.9851 H   0  0  0  0  0  0  0  0  0  0  0  0
    1.8299   69.8148   65.9625 H   0  0  0  0  0  0  0  0  0  0  0  0
    3.2572   70.2144   68.8462 H   0  0  0  0  0  0  0  0  0  0  0  0
    5.5613   71.0284   69.3366 H   0  0  0  0  0  0  0  0  0  0  0  0
    7.3459   70.8438   67.6086 H   0  0  0  0  0  0  0  0  0  0  0  0
    6.8288   69.8609   65.3779 H   0  0  0  0  0  0  0  0  0  0  0  0
    4.5292   69.0410   64.8778 H   0  0  0  0  0  0  0  0  0  0  0  0
    0.4666   61.8409   71.8434 H   0  0  0  0  0  0  0  0  0  0  0  0
   -0.8386   63.7539   70.8708 H   0  0  0  0  0  0  0  0  0  0  0  0
    4.0447   63.6176   70.2680 H   0  0  0  0  0  0  0  0  0  0  0  0
    2.9623   59.3034   71.4605 H   0  0  0  0  0  0  0  0  0  0  0  0
    4.2209   58.5151   68.5116 H   0  0  0  0  0  0  0  0  0  0  0  0
  2  1  1  0
  3  2  1  0
  4  3  1  0
  5  4  1  0
  6  5  1  0
  7  6  1  0
  7  2  1  0
  8  7  1  0
  9  8  1  0
 10  9  2  0
 11 10  1  0
 12 11  2  0
 13 12  1  0
 14  9  1  0
 14 13  2  0
 15  1  1  0
 17 16  2  0
 18 17  1  0
 19 18  2  0
 19 15  1  0
 20 19  1  0
 21 20  2  0
 21 16  1  0
 22 16  1  0
 23 22  2  0
 25 24  2  0
 25 22  1  0
 26 24  1  0
  1 27  1  0
  1 28  1  0
  2 29  1  6
  3 30  1  0
  3 31  1  0
  4 32  1  0
  4 33  1  0
  5 34  1  0
  5 35  1  0
  6 36  1  0
  6 37  1  0
  7 38  1  1
  8 39  1  0
  8 40  1  0
 10 41  1  0
 11 42  1  0
 12 43  1  0
 13 44  1  0
 14 45  1  0
 17 46  1  0
 18 47  1  0
 21 48  1  0
 25 49  1  0
 26 50  1  0
M  CHG  1   7   1
M  END
>  <score>  (1) 
-9.896

$$$$
=
     RDKit          3D

 50 52  0  0  0  0  0  0  0  0999 V2000
   -1.1770   68.5850   64.6640 C   0  0  0  0  0  0  0  0  0  0  0  0
   -1.0140   69.1330   66.1010 C   0  0  1  0  0  0  0  0  0  0  0  0
   -2.2220   68.9290   67.0230 C   0  0  0  0  0  0  0  0  0  0  0  0
   -2.4140   67.4770   67.4550 C   0  0  0  0  0  0  0  0  0  0  0  0
   -1.1420   66.9000   68.0660 C   0  0  0  0  0  0  0  0  0  0  0  0
    0.0570   67.0800   67.1510 C   0  0  0  0  0  0  0  0  0  0  0  0
    0.2350   68.5320   66.7630 N   0  0  2  0  0  4  0  0  0  0  0  0
    0.7890   69.4140   67.8730 C   0  0  0  0  0  0  0  0  0  0  0  0
    2.2670   69.6680   67.7380 C   0  0  0  0  0  0  0  0  0  0  0  0
    2.9450   69.3210   66.5600 C   0  0  0  0  0  0  0  0  0  0  0  0
    4.3090   69.5840   66.4280 C   0  0  0  0  0  0  0  0  0  0  0  0
    5.0070   70.1930   67.4680 C   0  0  0  0  0  0  0  0  0  0  0  0
    4.3470   70.5360   68.6450 C   0  0  0  0  0  0  0  0  0  0  0  0
    2.9830   70.2750   68.7830 C   0  0  0  0  0  0  0  0  0  0  0  0
   -0.2590   69.2250   63.7730 O   0  0  0  0  0  0  0  0  0  0  0  0
    3.2690   67.2260   63.0510 C   0  0  0  0  0  0  0  0  0  0  0  0
    3.0010   68.4270   62.3920 C   0  0  0  0  0  0  0  0  0  0  0  0
    1.8050   69.0970   62.6520 C   0  0  0  0  0  0  0  0  0  0  0  0
    0.9240   68.5510   63.5710 C   0  0  0  0  0  0  0  0  0  0  0  0
    1.1440   67.3930   64.2220 N   0  0  0  0  0  0  0  0  0  0  0  0
    2.3170   66.7600   63.9520 C   0  0  0  0  0  0  0  0  0  0  0  0
    4.5010   66.4370   62.8620 C   0  0  0  0  0  0  0  0  0  0  0  0
    5.3480   66.7720   62.0420 O   0  0  0  0  0  0  0  0  0  0  0  0
    4.4730   64.0280   63.1310 N   0  0  0  0  0  0  0  0  0  0  0  0
    4.7570   65.1830   63.6400 C   0  0  0  0  0  0  0  0  0  0  0  0
    4.8100   63.0400   64.0630 O   0  0  0  0  0  0  0  0  0  0  0  0
   -0.9832   67.5022   64.6661 H   0  0  0  0  0  0  0  0  0  0  0  0
   -2.2025   68.7878   64.3218 H   0  0  0  0  0  0  0  0  0  0  0  0
   -0.9148   70.2210   65.9733 H   0  0  0  0  0  0  0  0  0  0  0  0
   -2.0821   69.5455   67.9232 H   0  0  0  0  0  0  0  0  0  0  0  0
   -3.1179   69.2212   66.4555 H   0  0  0  0  0  0  0  0  0  0  0  0
   -3.2212   67.4303   68.2008 H   0  0  0  0  0  0  0  0  0  0  0  0
   -2.6673   66.8837   66.5640 H   0  0  0  0  0  0  0  0  0  0  0  0
   -0.9418   67.4108   69.0194 H   0  0  0  0  0  0  0  0  0  0  0  0
   -1.2957   65.8216   68.2190 H   0  0  0  0  0  0  0  0  0  0  0  0
    0.9617   66.7343   67.6725 H   0  0  0  0  0  0  0  0  0  0  0  0
   -0.1111   66.4927   66.2362 H   0  0  0  0  0  0  0  0  0  0  0  0
    0.9711   68.5173   66.0427 H   0  0  0  0  0  0  0  0  0  0  0  0
    0.2634   70.3800   67.8489 H   0  0  0  0  0  0  0  0  0  0  0  0
    0.6308   68.8851   68.8244 H   0  0  0  0  0  0  0  0  0  0  0  0
    2.3985   68.8390   65.7360 H   0  0  0  0  0  0  0  0  0  0  0  0
    4.8339   69.3099   65.5010 H   0  0  0  0  0  0  0  0  0  0  0  0
    6.0812   70.4033   67.3594 H   0  0  0  0  0  0  0  0  0  0  0  0
    4.9011   71.0131   69.4668 H   0  0  0  0  0  0  0  0  0  0  0  0
    2.4658   70.5461   69.7152 H   0  0  0  0  0  0  0  0  0  0  0  0
    3.7253   68.8410   61.6750 H   0  0  0  0  0  0  0  0  0  0  0  0
    1.5666   70.0396   62.1376 H   0  0  0  0  0  0  0  0  0  0  0  0
    2.5266   65.8183   64.4804 H   0  0  0  0  0  0  0  0  0  0  0  0
    5.1889   65.2444   64.6498 H   0  0  0  0  0  0  0  0  0  0  0  0
    4.6622   62.0851   63.8474 H   0  0  0  0  0  0  0  0  0  0  0  0
  2  1  1  0
  3  2  1  0
  4  3  1  0
  5  4  1  0
  6  5  1  0
  7  6  1  0
  7  2  1  0
  8  7  1  0
  9  8  1  0
 10  9  2  0
 11 10  1  0
 12 11  2  0
 13 12  1  0
 14  9  1  0
 14 13  2  0
 15  1  1  0
 17 16  2  0
 18 17  1  0
 19 18  2  0
 19 15  1  0
 20 19  1  0
 21 20  2  0
 21 16  1  0
 22 16  1  0
 23 22  2  0
 25 24  2  0
 25 22  1  0
 26 24  1  0
  1 27  1  0
  1 28  1  0
  2 29  1  6
  3 30  1  0
  3 31  1  0
  4 32  1  0
  4 33  1  0
  5 34  1  0
  5 35  1  0
  6 36  1  0
  6 37  1  0
  7 38  1  6
  8 39  1  0
  8 40  1  0
 10 41  1  0
 11 42  1  0
 12 43  1  0
 13 44  1  0
 14 45  1  0
 17 46  1  0
 18 47  1  0
 21 48  1  0
 25 49  1  0
 26 50  1  0
M  CHG  1   7   1
M  END
>  <score>  (2) 
-9.814

$$$$
=
     RDKit          3D

 50 52  0  0  0  0  0  0  0  0999 V2000
   -1.0020   67.8400   65.8130 C   0  0  0  0  0  0  0  0  0  0  0  0
   -0.4870   68.6120   67.0490 C   0  0  1  0  0  0  0  0  0  0  0  0
   -1.1030   68.1950   68.3900 C   0  0  0  0  0  0  0  0  0  0  0  0
   -0.6240   66.8290   68.8760 C   0  0  0  0  0  0  0  0  0  0  0  0
    0.8980   66.7480   68.9130 C   0  0  0  0  0  0  0  0  0  0  0  0
    1.5180   67.1420   67.5830 C   0  0  0  0  0  0  0  0  0  0  0  0
    1.0430   68.5100   67.1430 N   0  0  2  0  0  4  0  0  0  0  0  0
    1.6590   69.6660   67.9160 C   0  0  0  0  0  0  0  0  0  0  0  0
    3.1210   69.8610   67.6150 C   0  0  0  0  0  0  0  0  0  0  0  0
    3.9760   70.4290   68.5720 C   0  0  0  0  0  0  0  0  0  0  0  0
    5.3360   70.5840   68.3000 C   0  0  0  0  0  0  0  0  0  0  0  0
    5.8540   70.1740   67.0740 C   0  0  0  0  0  0  0  0  0  0  0  0
    5.0150   69.6160   66.1130 C   0  0  0  0  0  0  0  0  0  0  0  0
    3.6540   69.4590   66.3800 C   0  0  0  0  0  0  0  0  0  0  0  0
   -1.1000   68.7080   64.6810 O   0  0  0  0  0  0  0  0  0  0  0  0
    2.1400   68.7510   62.1390 C   0  0  0  0  0  0  0  0  0  0  0  0
    0.9940   69.4780   61.8180 C   0  0  0  0  0  0  0  0  0  0  0  0
   -0.0940   69.4610   62.6920 C   0  0  0  0  0  0  0  0  0  0  0  0
    0.0070   68.7260   63.8630 C   0  0  0  0  0  0  0  0  0  0  0  0
    1.0930   68.0080   64.2040 N   0  0  0  0  0  0  0  0  0  0  0  0
    2.1400   68.0430   63.3370 C   0  0  0  0  0  0  0  0  0  0  0  0
    3.3510   68.7020   61.2970 C   0  0  0  0  0  0  0  0  0  0  0  0
    3.3160   69.0370   60.1180 O   0  0  0  0  0  0  0  0  0  0  0  0
    5.4860   69.0460   62.3910 N   0  0  0  0  0  0  0  0  0  0  0  0
    4.6620   68.2190   61.8350 C   0  0  0  0  0  0  0  0  0  0  0  0
    6.6200   68.3340   62.7990 O   0  0  0  0  0  0  0  0  0  0  0  0
   -0.3042   67.0218   65.5815 H   0  0  0  0  0  0  0  0  0  0  0  0
   -2.0006   67.4372   66.0379 H   0  0  0  0  0  0  0  0  0  0  0  0
   -0.8103   69.6498   66.8806 H   0  0  0  0  0  0  0  0  0  0  0  0
   -0.8359   68.9480   69.1461 H   0  0  0  0  0  0  0  0  0  0  0  0
   -2.1906   68.1248   68.2411 H   0  0  0  0  0  0  0  0  0  0  0  0
   -1.0155   66.6531   69.8888 H   0  0  0  0  0  0  0  0  0  0  0  0
   -0.9920   66.0659   68.1743 H   0  0  0  0  0  0  0  0  0  0  0  0
    1.2715   67.4261   69.6944 H   0  0  0  0  0  0  0  0  0  0  0  0
    1.1792   65.7060   69.1253 H   0  0  0  0  0  0  0  0  0  0  0  0
    2.6128   67.1588   67.6882 H   0  0  0  0  0  0  0  0  0  0  0  0
    1.2131   66.4062   66.8243 H   0  0  0  0  0  0  0  0  0  0  0  0
    1.4034   68.6107   66.1834 H   0  0  0  0  0  0  0  0  0  0  0  0
    1.1209   70.5891   67.6544 H   0  0  0  0  0  0  0  0  0  0  0  0
    1.5718   69.4298   68.9868 H   0  0  0  0  0  0  0  0  0  0  0  0
    3.5719   70.7539   69.5421 H   0  0  0  0  0  0  0  0  0  0  0  0
    5.9997   71.0306   69.0550 H   0  0  0  0  0  0  0  0  0  0  0  0
    6.9275   70.2911   66.8645 H   0  0  0  0  0  0  0  0  0  0  0  0
    5.4250   69.2987   65.1428 H   0  0  0  0  0  0  0  0  0  0  0  0
    2.9949   69.0175   65.6180 H   0  0  0  0  0  0  0  0  0  0  0  0
    0.9480   70.0591   60.8852 H   0  0  0  0  0  0  0  0  0  0  0  0
   -1.0122   70.0190   62.4566 H   0  0  0  0  0  0  0  0  0  0  0  0
    3.0449   67.4753   63.5995 H   0  0  0  0  0  0  0  0  0  0  0  0
    4.9259   67.1540   61.7568 H   0  0  0  0  0  0  0  0  0  0  0  0
    7.3654   68.8056   63.2486 H   0  0  0  0  0  0  0  0  0  0  0  0
  2  1  1  0
  3  2  1  0
  4  3  1  0
  5  4  1  0
  6  5  1  0
  7  6  1  0
  7  2  1  0
  8  7  1  0
  9  8  1  0
 10  9  2  0
 11 10  1  0
 12 11  2  0
 13 12  1  0
 14  9  1  0
 14 13  2  0
 15  1  1  0
 17 16  2  0
 18 17  1  0
 19 18  2  0
 19 15  1  0
 20 19  1  0
 21 20  2  0
 21 16  1  0
 22 16  1  0
 23 22  2  0
 25 24  2  0
 25 22  1  0
 26 24  1  0
  1 27  1  0
  1 28  1  0
  2 29  1  6
  3 30  1  0
  3 31  1  0
  4 32  1  0
  4 33  1  0
  5 34  1  0
  5 35  1  0
  6 36  1  0
  6 37  1  0
  7 38  1  6
  8 39  1  0
  8 40  1  0
 10 41  1  0
 11 42  1  0
 12 43  1  0
 13 44  1  0
 14 45  1  0
 17 46  1  0
 18 47  1  0
 21 48  1  0
 25 49  1  0
 26 50  1  0
M  CHG  1   7   1
M  END
>  <score>  (3) 
-9.124

$$$$
=
     RDKit          3D

 50 52  0  0  0  0  0  0  0  0999 V2000
    0.9900   68.0010   65.6860 C   0  0  0  0  0  0  0  0  0  0  0  0
    2.5230   67.8010   65.6680 C   0  0  1  0  0  0  0  0  0  0  0  0
    3.0080   66.4940   65.0310 C   0  0  0  0  0  0  0  0  0  0  0  0
    2.8520   66.4670   63.5120 C   0  0  0  0  0  0  0  0  0  0  0  0
    3.5040   67.6800   62.8590 C   0  0  0  0  0  0  0  0  0  0  0  0
    3.0150   68.9830   63.4710 C   0  0  0  0  0  0  0  0  0  0  0  0
    3.2080   68.9870   64.9720 N   0  0  2  0  0  4  0  0  0  0  0  0
    4.6510   69.1720   65.4180 C   0  0  0  0  0  0  0  0  0  0  0  0
    4.7690   69.8050   66.7790 C   0  0  0  0  0  0  0  0  0  0  0  0
    3.6290   70.0070   67.5720 C   0  0  0  0  0  0  0  0  0  0  0  0
    3.7450   70.5690   68.8440 C   0  0  0  0  0  0  0  0  0  0  0  0
    4.9960   70.9340   69.3340 C   0  0  0  0  0  0  0  0  0  0  0  0
    6.1350   70.7450   68.5540 C   0  0  0  0  0  0  0  0  0  0  0  0
    6.0240   70.1840   67.2820 C   0  0  0  0  0  0  0  0  0  0  0  0
    0.5740   68.6040   66.9140 O   0  0  0  0  0  0  0  0  0  0  0  0
    0.4750   66.0130   70.1150 C   0  0  0  0  0  0  0  0  0  0  0  0
    1.5550   66.8820   69.9550 C   0  0  0  0  0  0  0  0  0  0  0  0
    1.5730   67.7600   68.8700 C   0  0  0  0  0  0  0  0  0  0  0  0
    0.5030   67.7470   67.9890 C   0  0  0  0  0  0  0  0  0  0  0  0
   -0.5540   66.9200   68.1070 N   0  0  0  0  0  0  0  0  0  0  0  0
   -0.5470   66.0760   69.1730 C   0  0  0  0  0  0  0  0  0  0  0  0
    0.3460   65.0500   71.2250 C   0  0  0  0  0  0  0  0  0  0  0  0
   -0.3010   65.3240   72.2290 O   0  0  0  0  0  0  0  0  0  0  0  0
    1.5480   63.2780   70.0880 N   0  0  0  0  0  0  0  0  0  0  0  0
    1.0180   63.7120   71.1860 C   0  0  0  0  0  0  0  0  0  0  0  0
    2.1000   62.0150   70.3330 O   0  0  0  0  0  0  0  0  0  0  0  0
    0.7008   68.6519   64.8478 H   0  0  0  0  0  0  0  0  0  0  0  0
    0.5038   67.0188   65.5914 H   0  0  0  0  0  0  0  0  0  0  0  0
    2.8068   67.7408   66.7291 H   0  0  0  0  0  0  0  0  0  0  0  0
    4.0723   66.3608   65.2749 H   0  0  0  0  0  0  0  0  0  0  0  0
    2.3847   65.6834   65.4366 H   0  0  0  0  0  0  0  0  0  0  0  0
    3.3246   65.5540   63.1209 H   0  0  0  0  0  0  0  0  0  0  0  0
    1.7777   66.4854   63.2763 H   0  0  0  0  0  0  0  0  0  0  0  0
    4.5940   67.6121   62.9905 H   0  0  0  0  0  0  0  0  0  0  0  0
    3.2332   67.6807   61.7929 H   0  0  0  0  0  0  0  0  0  0  0  0
    3.5802   69.8194   63.0340 H   0  0  0  0  0  0  0  0  0  0  0  0
    1.9412   69.0879   63.2569 H   0  0  0  0  0  0  0  0  0  0  0  0
    2.7205   69.8362   65.2915 H   0  0  0  0  0  0  0  0  0  0  0  0
    5.1384   68.1863   65.4463 H   0  0  0  0  0  0  0  0  0  0  0  0
    5.1343   69.8481   64.6974 H   0  0  0  0  0  0  0  0  0  0  0  0
    2.6384   69.7207   67.1888 H   0  0  0  0  0  0  0  0  0  0  0  0
    2.8470   70.7238   69.4602 H   0  0  0  0  0  0  0  0  0  0  0  0
    5.0854   71.3724   70.3389 H   0  0  0  0  0  0  0  0  0  0  0  0
    7.1218   71.0383   68.9415 H   0  0  0  0  0  0  0  0  0  0  0  0
    6.9254   70.0375   66.6688 H   0  0  0  0  0  0  0  0  0  0  0  0
    2.3846   66.8752   70.6773 H   0  0  0  0  0  0  0  0  0  0  0  0
    2.4181   68.4474   68.7174 H   0  0  0  0  0  0  0  0  0  0  0  0
   -1.4049   65.3991   69.2988 H   0  0  0  0  0  0  0  0  0  0  0  0
    1.0613   63.0949   72.0956 H   0  0  0  0  0  0  0  0  0  0  0  0
    2.5528   61.5226   69.6032 H   0  0  0  0  0  0  0  0  0  0  0  0
  2  1  1  0
  3  2  1  0
  4  3  1  0
  5  4  1  0
  6  5  1  0
  7  6  1  0
  7  2  1  0
  8  7  1  0
  9  8  1  0
 10  9  2  0
 11 10  1  0
 12 11  2  0
 13 12  1  0
 14  9  1  0
 14 13  2  0
 15  1  1  0
 17 16  2  0
 18 17  1  0
 19 18  2  0
 19 15  1  0
 20 19  1  0
 21 20  2  0
 21 16  1  0
 22 16  1  0
 23 22  2  0
 25 24  2  0
 25 22  1  0
 26 24  1  0
  1 27  1  0
  1 28  1  0
  2 29  1  1
  3 30  1  0
  3 31  1  0
  4 32  1  0
  4 33  1  0
  5 34  1  0
  5 35  1  0
  6 36  1  0
  6 37  1  0
  7 38  1  1
  8 39  1  0
  8 40  1  0
 10 41  1  0
 11 42  1  0
 12 43  1  0
 13 44  1  0
 14 45  1  0
 17 46  1  0
 18 47  1  0
 21 48  1  0
 25 49  1  0
 26 50  1  0
M  CHG  1   7   1
M  END
>  <score>  (4) 
-9.111

$$$$
=
     RDKit          3D

 50 52  0  0  0  0  0  0  0  0999 V2000
    3.3540   65.9040   64.0470 C   0  0  0  0  0  0  0  0  0  0  0  0
    4.5230   66.8930   63.8330 C   0  0  1  0  0  0  0  0  0  0  0  0
    5.0770   66.9580   62.4050 C   0  0  0  0  0  0  0  0  0  0  0  0
    4.1340   67.6500   61.4230 C   0  0  0  0  0  0  0  0  0  0  0  0
    3.7160   69.0280   61.9220 C   0  0  0  0  0  0  0  0  0  0  0  0
    3.1480   68.9720   63.3300 C   0  0  0  0  0  0  0  0  0  0  0  0
    4.1160   68.3050   64.2830 N   0  0  2  0  0  4  0  0  0  0  0  0
    5.3120   69.1640   64.6640 C   0  0  0  0  0  0  0  0  0  0  0  0
    5.2370   69.6840   66.0750 C   0  0  0  0  0  0  0  0  0  0  0  0
    6.3750   70.2140   66.7000 C   0  0  0  0  0  0  0  0  0  0  0  0
    6.2950   70.7210   67.9980 C   0  0  0  0  0  0  0  0  0  0  0  0
    5.0820   70.7020   68.6820 C   0  0  0  0  0  0  0  0  0  0  0  0
    3.9470   70.1720   68.0740 C   0  0  0  0  0  0  0  0  0  0  0  0
    4.0210   69.6640   66.7770 C   0  0  0  0  0  0  0  0  0  0  0  0
    2.9730   65.8630   65.4250 O   0  0  0  0  0  0  0  0  0  0  0  0
   -0.1590   68.2920   66.5450 C   0  0  0  0  0  0  0  0  0  0  0  0
    0.7500   67.8420   67.5030 C   0  0  0  0  0  0  0  0  0  0  0  0
    1.8110   67.0250   67.1080 C   0  0  0  0  0  0  0  0  0  0  0  0
    1.9330   66.6980   65.7670 C   0  0  0  0  0  0  0  0  0  0  0  0
    1.0740   67.1080   64.8150 N   0  0  0  0  0  0  0  0  0  0  0  0
    0.0500   67.9030   65.2250 C   0  0  0  0  0  0  0  0  0  0  0  0
   -1.3110   69.1640   66.8440 C   0  0  0  0  0  0  0  0  0  0  0  0
   -1.1490   70.3070   67.2550 O   0  0  0  0  0  0  0  0  0  0  0  0
   -3.4030   68.9950   65.6310 N   0  0  0  0  0  0  0  0  0  0  0  0
   -2.7210   68.6840   66.6860 C   0  0  0  0  0  0  0  0  0  0  0  0
   -4.6750   68.4210   65.7430 O   0  0  0  0  0  0  0  0  0  0  0  0
    2.4928   66.2268   63.4436 H   0  0  0  0  0  0  0  0  0  0  0  0
    3.6798   64.8992   63.7399 H   0  0  0  0  0  0  0  0  0  0  0  0
    5.3400   66.4948   64.4526 H   0  0  0  0  0  0  0  0  0  0  0  0
    6.0281   67.5103   62.4241 H   0  0  0  0  0  0  0  0  0  0  0  0
    5.2066   65.9223   62.0580 H   0  0  0  0  0  0  0  0  0  0  0  0
    4.6451   67.7608   60.4553 H   0  0  0  0  0  0  0  0  0  0  0  0
    3.2296   67.0322   61.3215 H   0  0  0  0  0  0  0  0  0  0  0  0
    4.5952   69.6891   61.9192 H   0  0  0  0  0  0  0  0  0  0  0  0
    2.9310   69.4095   61.2525 H   0  0  0  0  0  0  0  0  0  0  0  0
    2.9497   69.9964   63.6782 H   0  0  0  0  0  0  0  0  0  0  0  0
    2.2187   68.3838   63.3082 H   0  0  0  0  0  0  0  0  0  0  0  0
    3.5814   68.1923   65.1561 H   0  0  0  0  0  0  0  0  0  0  0  0
    6.2250   68.5591   64.5614 H   0  0  0  0  0  0  0  0  0  0  0  0
    5.3190   70.0350   63.9922 H   0  0  0  0  0  0  0  0  0  0  0  0
    7.3357   70.2303   66.1645 H   0  0  0  0  0  0  0  0  0  0  0  0
    7.1915   71.1363   68.4815 H   0  0  0  0  0  0  0  0  0  0  0  0
    5.0205   71.1060   69.7033 H   0  0  0  0  0  0  0  0  0  0  0  0
    2.9907   70.1539   68.6172 H   0  0  0  0  0  0  0  0  0  0  0  0
    3.1218   69.2454   66.3015 H   0  0  0  0  0  0  0  0  0  0  0  0
    0.6320   68.1279   68.5586 H   0  0  0  0  0  0  0  0  0  0  0  0
    2.5349   66.6488   67.8458 H   0  0  0  0  0  0  0  0  0  0  0  0
   -0.6590   68.2619   64.4644 H   0  0  0  0  0  0  0  0  0  0  0  0
   -3.1792   68.0640   67.4707 H   0  0  0  0  0  0  0  0  0  0  0  0
   -5.3422   68.5518   65.0234 H   0  0  0  0  0  0  0  0  0  0  0  0
  2  1  1  0
  3  2  1  0
  4  3  1  0
  5  4  1  0
  6  5  1  0
  7  6  1  0
  7  2  1  0
  8  7  1  0
  9  8  1  0
 10  9  2  0
 11 10  1  0
 12 11  2  0
 13 12  1  0
 14  9  1  0
 14 13  2  0
 15  1  1  0
 17 16  2  0
 18 17  1  0
 19 18  2  0
 19 15  1  0
 20 19  1  0
 21 20  2  0
 21 16  1  0
 22 16  1  0
 23 22  2  0
 25 24  2  0
 25 22  1  0
 26 24  1  0
  1 27  1  0
  1 28  1  0
  2 29  1  1
  3 30  1  0
  3 31  1  0
  4 32  1  0
  4 33  1  0
  5 34  1  0
  5 35  1  0
  6 36  1  0
  6 37  1  0
  7 38  1  1
  8 39  1  0
  8 40  1  0
 10 41  1  0
 11 42  1  0
 12 43  1  0
 13 44  1  0
 14 45  1  0
 17 46  1  0
 18 47  1  0
 21 48  1  0
 25 49  1  0
 26 50  1  0
M  CHG  1   7   1
M  END
>  <score>  (5) 
-9.04

$$$$
=
     RDKit          3D

 50 52  0  0  0  0  0  0  0  0999 V2000
   -0.1180   66.7560   69.0880 C   0  0  0  0  0  0  0  0  0  0  0  0
    0.4590   67.2100   67.7270 C   0  0  1  0  0  0  0  0  0  0  0  0
   -0.4780   67.0400   66.5260 C   0  0  0  0  0  0  0  0  0  0  0  0
   -1.6370   68.0350   66.5190 C   0  0  0  0  0  0  0  0  0  0  0  0
   -1.1440   69.4720   66.6420 C   0  0  0  0  0  0  0  0  0  0  0  0
   -0.2290   69.6550   67.8410 C   0  0  0  0  0  0  0  0  0  0  0  0
    0.9220   68.6730   67.8040 N   0  0  2  0  0  4  0  0  0  0  0  0
    1.9940   69.0020   66.7760 C   0  0  0  0  0  0  0  0  0  0  0  0
    3.2340   69.5950   67.3900 C   0  0  0  0  0  0  0  0  0  0  0  0
    4.4170   69.7030   66.6420 C   0  0  0  0  0  0  0  0  0  0  0  0
    5.5570   70.2780   67.2050 C   0  0  0  0  0  0  0  0  0  0  0  0
    5.5270   70.7490   68.5150 C   0  0  0  0  0  0  0  0  0  0  0  0
    4.3620   70.6410   69.2700 C   0  0  0  0  0  0  0  0  0  0  0  0
    3.2190   70.0670   68.7120 C   0  0  0  0  0  0  0  0  0  0  0  0
    0.9200   66.6590   70.0680 O   0  0  0  0  0  0  0  0  0  0  0  0
    1.4890   62.8640   71.5640 C   0  0  0  0  0  0  0  0  0  0  0  0
    2.4230   63.4120   70.6850 C   0  0  0  0  0  0  0  0  0  0  0  0
    2.2210   64.7020   70.1910 C   0  0  0  0  0  0  0  0  0  0  0  0
    1.0990   65.4030   70.6040 C   0  0  0  0  0  0  0  0  0  0  0  0
    0.1740   64.9060   71.4460 N   0  0  0  0  0  0  0  0  0  0  0  0
    0.3940   63.6480   71.9140 C   0  0  0  0  0  0  0  0  0  0  0  0
    1.6020   61.5160   72.1540 C   0  0  0  0  0  0  0  0  0  0  0  0
    2.6740   60.9220   72.1740 O   0  0  0  0  0  0  0  0  0  0  0  0
    0.5240   59.5970   73.1690 N   0  0  0  0  0  0  0  0  0  0  0  0
    0.4140   60.8080   72.7280 C   0  0  0  0  0  0  0  0  0  0  0  0
   -0.7260   59.1830   73.6430 O   0  0  0  0  0  0  0  0  0  0  0  0
   -0.8666   67.4879   69.4255 H   0  0  0  0  0  0  0  0  0  0  0  0
   -0.5822   65.7665   68.9640 H   0  0  0  0  0  0  0  0  0  0  0  0
    1.3054   66.5314   67.5453 H   0  0  0  0  0  0  0  0  0  0  0  0
    0.1067   67.1784   65.6046 H   0  0  0  0  0  0  0  0  0  0  0  0
   -0.9139   66.0322   66.5926 H   0  0  0  0  0  0  0  0  0  0  0  0
   -2.1935   67.9281   65.5762 H   0  0  0  0  0  0  0  0  0  0  0  0
   -2.2821   67.8176   67.3830 H   0  0  0  0  0  0  0  0  0  0  0  0
   -0.5915   69.7381   65.7288 H   0  0  0  0  0  0  0  0  0  0  0  0
   -2.0201   70.1231   66.7785 H   0  0  0  0  0  0  0  0  0  0  0  0
    0.1723   70.6791   67.8334 H   0  0  0  0  0  0  0  0  0  0  0  0
   -0.8124   69.4746   68.7560 H   0  0  0  0  0  0  0  0  0  0  0  0
    1.3866   68.7862   68.7163 H   0  0  0  0  0  0  0  0  0  0  0  0
    2.2712   68.0766   66.2499 H   0  0  0  0  0  0  0  0  0  0  0  0
    1.5740   69.7531   66.0908 H   0  0  0  0  0  0  0  0  0  0  0  0
    4.4455   69.3324   65.6067 H   0  0  0  0  0  0  0  0  0  0  0  0
    6.4806   70.3593   66.6131 H   0  0  0  0  0  0  0  0  0  0  0  0
    6.4253   71.2073   68.9543 H   0  0  0  0  0  0  0  0  0  0  0  0
    4.3427   71.0083   70.3067 H   0  0  0  0  0  0  0  0  0  0  0  0
    2.3006   69.9839   69.3117 H   0  0  0  0  0  0  0  0  0  0  0  0
    3.3092   62.8340   70.3842 H   0  0  0  0  0  0  0  0  0  0  0  0
    2.9375   65.1527   69.4885 H   0  0  0  0  0  0  0  0  0  0  0  0
   -0.3407   63.2232   72.6139 H   0  0  0  0  0  0  0  0  0  0  0  0
   -0.5580   61.3208   72.7749 H   0  0  0  0  0  0  0  0  0  0  0  0
   -0.8358   58.2750   74.0219 H   0  0  0  0  0  0  0  0  0  0  0  0
  2  1  1  0
  3  2  1  0
  4  3  1  0
  5  4  1  0
  6  5  1  0
  7  6  1  0
  7  2  1  0
  8  7  1  0
  9  8  1  0
 10  9  2  0
 11 10  1  0
 12 11  2  0
 13 12  1  0
 14  9  1  0
 14 13  2  0
 15  1  1  0
 17 16  2  0
 18 17  1  0
 19 18  2  0
 19 15  1  0
 20 19  1  0
 21 20  2  0
 21 16  1  0
 22 16  1  0
 23 22  2  0
 25 24  2  0
 25 22  1  0
 26 24  1  0
  1 27  1  0
  1 28  1  0
  2 29  1  6
  3 30  1  0
  3 31  1  0
  4 32  1  0
  4 33  1  0
  5 34  1  0
  5 35  1  0
  6 36  1  0
  6 37  1  0
  7 38  1  1
  8 39  1  0
  8 40  1  0
 10 41  1  0
 11 42  1  0
 12 43  1  0
 13 44  1  0
 14 45  1  0
 17 46  1  0
 18 47  1  0
 21 48  1  0
 25 49  1  0
 26 50  1  0
M  CHG  1   7   1
M  END
>  <score>  (6) 
-8.975

$$$$
=
     RDKit          3D

 50 52  0  0  0  0  0  0  0  0999 V2000
    2.1090   64.4640   70.6560 C   0  0  0  0  0  0  0  0  0  0  0  0
    2.1250   62.9360   70.4190 C   0  0  1  0  0  0  0  0  0  0  0  0
    3.0680   62.4520   69.3120 C   0  0  0  0  0  0  0  0  0  0  0  0
    4.5440   62.5430   69.6920 C   0  0  0  0  0  0  0  0  0  0  0  0
    4.8280   61.8390   71.0140 C   0  0  0  0  0  0  0  0  0  0  0  0
    3.9100   62.3260   72.1230 C   0  0  0  0  0  0  0  0  0  0  0  0
    2.4560   62.1970   71.7240 N   0  0  2  0  0  4  0  0  0  0  0  0
    1.9260   60.7710   71.7390 C   0  0  0  0  0  0  0  0  0  0  0  0
    0.6530   60.6260   72.5290 C   0  0  0  0  0  0  0  0  0  0  0  0
   -0.3140   61.6420   72.5160 C   0  0  0  0  0  0  0  0  0  0  0  0
   -1.5050   61.4930   73.2270 C   0  0  0  0  0  0  0  0  0  0  0  0
   -1.7420   60.3300   73.9560 C   0  0  0  0  0  0  0  0  0  0  0  0
   -0.7880   59.3170   73.9830 C   0  0  0  0  0  0  0  0  0  0  0  0
    0.4060   59.4610   73.2740 C   0  0  0  0  0  0  0  0  0  0  0  0
    0.7660   64.9550   70.6870 O   0  0  0  0  0  0  0  0  0  0  0  0
   -0.0930   67.8300   67.8650 C   0  0  0  0  0  0  0  0  0  0  0  0
    1.1410   67.8410   68.5170 C   0  0  0  0  0  0  0  0  0  0  0  0
    1.4220   66.8560   69.4660 C   0  0  0  0  0  0  0  0  0  0  0  0
    0.4630   65.8880   69.7210 C   0  0  0  0  0  0  0  0  0  0  0  0
   -0.7390   65.8480   69.1170 N   0  0  0  0  0  0  0  0  0  0  0  0
   -0.9880   66.8170   68.1960 C   0  0  0  0  0  0  0  0  0  0  0  0
   -0.4950   68.8140   66.8410 C   0  0  0  0  0  0  0  0  0  0  0  0
   -1.0390   69.8660   67.1540 O   0  0  0  0  0  0  0  0  0  0  0  0
   -1.2630   68.6670   64.5470 N   0  0  0  0  0  0  0  0  0  0  0  0
   -0.2810   68.5590   65.3810 C   0  0  0  0  0  0  0  0  0  0  0  0
   -0.7880   68.3760   63.2630 O   0  0  0  0  0  0  0  0  0  0  0  0
    2.5972   64.6859   71.6164 H   0  0  0  0  0  0  0  0  0  0  0  0
    2.6474   64.9561   69.8326 H   0  0  0  0  0  0  0  0  0  0  0  0
    1.1086   62.6992   70.0713 H   0  0  0  0  0  0  0  0  0  0  0  0
    2.8301   61.4022   69.0852 H   0  0  0  0  0  0  0  0  0  0  0  0
    2.9145   63.1093   68.4434 H   0  0  0  0  0  0  0  0  0  0  0  0
    5.1459   62.0725   68.9006 H   0  0  0  0  0  0  0  0  0  0  0  0
    4.8051   63.6056   69.8052 H   0  0  0  0  0  0  0  0  0  0  0  0
    4.6810   60.7572   70.8798 H   0  0  0  0  0  0  0  0  0  0  0  0
    5.8645   62.0647   71.3051 H   0  0  0  0  0  0  0  0  0  0  0  0
    4.0889   61.7253   73.0270 H   0  0  0  0  0  0  0  0  0  0  0  0
    4.1265   63.3874   72.3143 H   0  0  0  0  0  0  0  0  0  0  0  0
    1.9397   62.6794   72.4734 H   0  0  0  0  0  0  0  0  0  0  0  0
    1.7331   60.4576   70.7024 H   0  0  0  0  0  0  0  0  0  0  0  0
    2.6875   60.1416   72.2228 H   0  0  0  0  0  0  0  0  0  0  0  0
   -0.1321   62.5622   71.9415 H   0  0  0  0  0  0  0  0  0  0  0  0
   -2.2578   62.2949   73.2119 H   0  0  0  0  0  0  0  0  0  0  0  0
   -2.6843   60.2120   74.5111 H   0  0  0  0  0  0  0  0  0  0  0  0
   -0.9750   58.4017   74.5637 H   0  0  0  0  0  0  0  0  0  0  0  0
    1.1573   58.6579   73.2989 H   0  0  0  0  0  0  0  0  0  0  0  0
    1.8847   68.6178   68.2856 H   0  0  0  0  0  0  0  0  0  0  0  0
    2.3838   66.8483   69.9998 H   0  0  0  0  0  0  0  0  0  0  0  0
   -1.9591   66.7990   67.6795 H   0  0  0  0  0  0  0  0  0  0  0  0
    0.7179   68.2781   65.0158 H   0  0  0  0  0  0  0  0  0  0  0  0
   -1.4037   68.4081   62.4884 H   0  0  0  0  0  0  0  0  0  0  0  0
  2  1  1  0
  3  2  1  0
  4  3  1  0
  5  4  1  0
  6  5  1  0
  7  6  1  0
  7  2  1  0
  8  7  1  0
  9  8  1  0
 10  9  2  0
 11 10  1  0
 12 11  2  0
 13 12  1  0
 14  9  1  0
 14 13  2  0
 15  1  1  0
 17 16  2  0
 18 17  1  0
 19 18  2  0
 19 15  1  0
 20 19  1  0
 21 20  2  0
 21 16  1  0
 22 16  1  0
 23 22  2  0
 25 24  2  0
 25 22  1  0
 26 24  1  0
  1 27  1  0
  1 28  1  0
  2 29  1  6
  3 30  1  0
  3 31  1  0
  4 32  1  0
  4 33  1  0
  5 34  1  0
  5 35  1  0
  6 36  1  0
  6 37  1  0
  7 38  1  1
  8 39  1  0
  8 40  1  0
 10 41  1  0
 11 42  1  0
 12 43  1  0
 13 44  1  0
 14 45  1  0
 17 46  1  0
 18 47  1  0
 21 48  1  0
 25 49  1  0
 26 50  1  0
M  CHG  1   7   1
M  END
>  <score>  (7) 
-8.711

$$$$
=
     RDKit          3D

 50 52  0  0  0  0  0  0  0  0999 V2000
    0.2190   63.7840   71.1000 C   0  0  0  0  0  0  0  0  0  0  0  0
    1.0350   62.9270   72.0950 C   0  0  1  0  0  0  0  0  0  0  0  0
    1.1350   63.4880   73.5180 C   0  0  0  0  0  0  0  0  0  0  0  0
   -0.1740   63.3900   74.3000 C   0  0  0  0  0  0  0  0  0  0  0  0
   -0.7240   61.9680   74.2980 C   0  0  0  0  0  0  0  0  0  0  0  0
   -0.8450   61.4100   72.8900 C   0  0  0  0  0  0  0  0  0  0  0  0
    0.4750   61.4980   72.1530 N   0  0  2  0  0  4  0  0  0  0  0  0
    1.5130   60.4810   72.6030 C   0  0  0  0  0  0  0  0  0  0  0  0
    2.8650   60.7060   71.9810 C   0  0  0  0  0  0  0  0  0  0  0  0
    3.0580   60.5080   70.6060 C   0  0  0  0  0  0  0  0  0  0  0  0
    4.3060   60.7440   70.0270 C   0  0  0  0  0  0  0  0  0  0  0  0
    5.3690   61.1790   70.8140 C   0  0  0  0  0  0  0  0  0  0  0  0
    5.1920   61.3730   72.1820 C   0  0  0  0  0  0  0  0  0  0  0  0
    3.9470   61.1380   72.7650 C   0  0  0  0  0  0  0  0  0  0  0  0
    0.4850   65.1760   71.2980 O   0  0  0  0  0  0  0  0  0  0  0  0
    0.3460   67.5790   67.9560 C   0  0  0  0  0  0  0  0  0  0  0  0
    1.4620   67.6130   68.7920 C   0  0  0  0  0  0  0  0  0  0  0  0
    1.4990   66.7880   69.9170 C   0  0  0  0  0  0  0  0  0  0  0  0
    0.4240   65.9480   70.1600 C   0  0  0  0  0  0  0  0  0  0  0  0
   -0.6720   65.8910   69.3800 N   0  0  0  0  0  0  0  0  0  0  0  0
   -0.6830   66.7040   68.2890 C   0  0  0  0  0  0  0  0  0  0  0  0
    0.2010   68.3990   66.7370 C   0  0  0  0  0  0  0  0  0  0  0  0
    1.1660   68.9660   66.2380 O   0  0  0  0  0  0  0  0  0  0  0  0
   -1.2130   68.6770   64.7880 N   0  0  0  0  0  0  0  0  0  0  0  0
   -1.1280   68.5940   66.0760 C   0  0  0  0  0  0  0  0  0  0  0  0
   -2.5570   68.8560   64.4440 O   0  0  0  0  0  0  0  0  0  0  0  0
    0.4952   63.5058   70.0722 H   0  0  0  0  0  0  0  0  0  0  0  0
   -0.8522   63.6001   71.2692 H   0  0  0  0  0  0  0  0  0  0  0  0
    2.0598   62.9395   71.6954 H   0  0  0  0  0  0  0  0  0  0  0  0
    1.9090   62.9260   74.0612 H   0  0  0  0  0  0  0  0  0  0  0  0
    1.3828   64.5561   73.4303 H   0  0  0  0  0  0  0  0  0  0  0  0
    0.0070   63.7013   75.3394 H   0  0  0  0  0  0  0  0  0  0  0  0
   -0.9134   64.0455   73.8166 H   0  0  0  0  0  0  0  0  0  0  0  0
   -0.0474   61.3240   74.8789 H   0  0  0  0  0  0  0  0  0  0  0  0
   -1.7294   61.9904   74.7437 H   0  0  0  0  0  0  0  0  0  0  0  0
   -1.1552   60.3562   72.9467 H   0  0  0  0  0  0  0  0  0  0  0  0
   -1.5913   62.0039   72.3419 H   0  0  0  0  0  0  0  0  0  0  0  0
    0.2470   61.2329   71.1842 H   0  0  0  0  0  0  0  0  0  0  0  0
    1.6152   60.5448   73.6964 H   0  0  0  0  0  0  0  0  0  0  0  0
    1.1633   59.4892   72.2804 H   0  0  0  0  0  0  0  0  0  0  0  0
    2.2210   60.1647   69.9802 H   0  0  0  0  0  0  0  0  0  0  0  0
    4.4498   60.5862   68.9479 H   0  0  0  0  0  0  0  0  0  0  0  0
    6.3502   61.3698   70.3548 H   0  0  0  0  0  0  0  0  0  0  0  0
    6.0346   61.7117   72.8028 H   0  0  0  0  0  0  0  0  0  0  0  0
    3.8118   61.2920   73.8457 H   0  0  0  0  0  0  0  0  0  0  0  0
    2.3045   68.2834   68.5668 H   0  0  0  0  0  0  0  0  0  0  0  0
    2.3636   66.8042   70.5968 H   0  0  0  0  0  0  0  0  0  0  0  0
   -1.5616   66.6670   67.6281 H   0  0  0  0  0  0  0  0  0  0  0  0
   -2.0380   68.6672   66.6896 H   0  0  0  0  0  0  0  0  0  0  0  0
   -2.8174   68.9408   63.4926 H   0  0  0  0  0  0  0  0  0  0  0  0
  2  1  1  0
  3  2  1  0
  4  3  1  0
  5  4  1  0
  6  5  1  0
  7  6  1  0
  7  2  1  0
  8  7  1  0
  9  8  1  0
 10  9  2  0
 11 10  1  0
 12 11  2  0
 13 12  1  0
 14  9  1  0
 14 13  2  0
 15  1  1  0
 17 16  2  0
 18 17  1  0
 19 18  2  0
 19 15  1  0
 20 19  1  0
 21 20  2  0
 21 16  1  0
 22 16  1  0
 23 22  2  0
 25 24  2  0
 25 22  1  0
 26 24  1  0
  1 27  1  0
  1 28  1  0
  2 29  1  6
  3 30  1  0
  3 31  1  0
  4 32  1  0
  4 33  1  0
  5 34  1  0
  5 35  1  0
  6 36  1  0
  6 37  1  0
  7 38  1  6
  8 39  1  0
  8 40  1  0
 10 41  1  0
 11 42  1  0
 12 43  1  0
 13 44  1  0
 14 45  1  0
 17 46  1  0
 18 47  1  0
 21 48  1  0
 25 49  1  0
 26 50  1  0
M  CHG  1   7   1
M  END
>  <score>  (8) 
-8.496

$$$$
=
     RDKit          3D

 50 52  0  0  0  0  0  0  0  0999 V2000
    0.4770   60.8230   73.1250 C   0  0  0  0  0  0  0  0  0  0  0  0
    2.0200   60.7540   73.0550 C   0  0  1  0  0  0  0  0  0  0  0  0
    2.7420   60.7820   74.4080 C   0  0  0  0  0  0  0  0  0  0  0  0
    2.5860   59.4860   75.2010 C   0  0  0  0  0  0  0  0  0  0  0  0
    2.9930   58.2700   74.3770 C   0  0  0  0  0  0  0  0  0  0  0  0
    2.2680   58.2240   73.0420 C   0  0  0  0  0  0  0  0  0  0  0  0
    2.4640   59.5110   72.2700 N   0  0  2  0  0  4  0  0  0  0  0  0
    3.8480   59.6700   71.6570 C   0  0  0  0  0  0  0  0  0  0  0  0
    3.9770   60.9090   70.8120 C   0  0  0  0  0  0  0  0  0  0  0  0
    3.3110   61.0040   69.5810 C   0  0  0  0  0  0  0  0  0  0  0  0
    3.4110   62.1640   68.8120 C   0  0  0  0  0  0  0  0  0  0  0  0
    4.1750   63.2370   69.2630 C   0  0  0  0  0  0  0  0  0  0  0  0
    4.8470   63.1530   70.4800 C   0  0  0  0  0  0  0  0  0  0  0  0
    4.7510   61.9950   71.2530 C   0  0  0  0  0  0  0  0  0  0  0  0
    0.0500   62.1080   73.5860 O   0  0  0  0  0  0  0  0  0  0  0  0
    0.3900   65.0800   70.7540 C   0  0  0  0  0  0  0  0  0  0  0  0
    0.5950   63.7470   70.3940 C   0  0  0  0  0  0  0  0  0  0  0  0
    0.4690   62.7500   71.3620 C   0  0  0  0  0  0  0  0  0  0  0  0
    0.1310   63.1180   72.6540 C   0  0  0  0  0  0  0  0  0  0  0  0
   -0.0690   64.3920   73.0420 N   0  0  0  0  0  0  0  0  0  0  0  0
    0.0580   65.3450   72.0790 C   0  0  0  0  0  0  0  0  0  0  0  0
    0.4880   66.2140   69.8160 C   0  0  0  0  0  0  0  0  0  0  0  0
    1.4440   66.9810   69.8480 O   0  0  0  0  0  0  0  0  0  0  0  0
   -0.4250   67.4280   67.9270 N   0  0  0  0  0  0  0  0  0  0  0  0
   -0.5820   66.4930   68.8060 C   0  0  0  0  0  0  0  0  0  0  0  0
   -1.5670   67.4720   67.1190 O   0  0  0  0  0  0  0  0  0  0  0  0
    0.0614   60.6422   72.1227 H   0  0  0  0  0  0  0  0  0  0  0  0
    0.1198   60.0573   73.8293 H   0  0  0  0  0  0  0  0  0  0  0  0
    2.3152   61.6795   72.5390 H   0  0  0  0  0  0  0  0  0  0  0  0
    3.8134   60.9553   74.2289 H   0  0  0  0  0  0  0  0  0  0  0  0
    2.2870   61.5865   75.0044 H   0  0  0  0  0  0  0  0  0  0  0  0
    3.2208   59.5379   76.0978 H   0  0  0  0  0  0  0  0  0  0  0  0
    1.5263   59.3763   75.4748 H   0  0  0  0  0  0  0  0  0  0  0  0
    4.0766   58.3116   74.1924 H   0  0  0  0  0  0  0  0  0  0  0  0
    2.7227   57.3670   74.9440 H   0  0  0  0  0  0  0  0  0  0  0  0
    2.6615   57.3857   72.4484 H   0  0  0  0  0  0  0  0  0  0  0  0
    1.1928   58.0919   73.2331 H   0  0  0  0  0  0  0  0  0  0  0  0
    1.8259   59.4284   71.4657 H   0  0  0  0  0  0  0  0  0  0  0  0
    4.5877   59.7210   72.4695 H   0  0  0  0  0  0  0  0  0  0  0  0
    4.0191   58.8041   71.0005 H   0  0  0  0  0  0  0  0  0  0  0  0
    2.7064   60.1590   69.2198 H   0  0  0  0  0  0  0  0  0  0  0  0
    2.8854   62.2308   67.8480 H   0  0  0  0  0  0  0  0  0  0  0  0
    4.2480   64.1523   68.6573 H   0  0  0  0  0  0  0  0  0  0  0  0
    5.4539   64.0001   70.8322 H   0  0  0  0  0  0  0  0  0  0  0  0
    5.2844   61.9324   72.2130 H   0  0  0  0  0  0  0  0  0  0  0  0
    0.8533   63.4851   69.3573 H   0  0  0  0  0  0  0  0  0  0  0  0
    0.6347   61.6935   71.1045 H   0  0  0  0  0  0  0  0  0  0  0  0
   -0.1129   66.3929   72.3667 H   0  0  0  0  0  0  0  0  0  0  0  0
   -1.5075   65.8985   68.8121 H   0  0  0  0  0  0  0  0  0  0  0  0
   -1.6280   68.1321   66.3838 H   0  0  0  0  0  0  0  0  0  0  0  0
  2  1  1  0
  3  2  1  0
  4  3  1  0
  5  4  1  0
  6  5  1  0
  7  6  1  0
  7  2  1  0
  8  7  1  0
  9  8  1  0
 10  9  2  0
 11 10  1  0
 12 11  2  0
 13 12  1  0
 14  9  1  0
 14 13  2  0
 15  1  1  0
 17 16  2  0
 18 17  1  0
 19 18  2  0
 19 15  1  0
 20 19  1  0
 21 20  2  0
 21 16  1  0
 22 16  1  0
 23 22  2  0
 25 24  2  0
 25 22  1  0
 26 24  1  0
  1 27  1  0
  1 28  1  0
  2 29  1  6
  3 30  1  0
  3 31  1  0
  4 32  1  0
  4 33  1  0
  5 34  1  0
  5 35  1  0
  6 36  1  0
  6 37  1  0
  7 38  1  6
  8 39  1  0
  8 40  1  0
 10 41  1  0
 11 42  1  0
 12 43  1  0
 13 44  1  0
 14 45  1  0
 17 46  1  0
 18 47  1  0
 21 48  1  0
 25 49  1  0
 26 50  1  0
M  CHG  1   7   1
M  END
>  <score>  (9) 
-8.4

$$$$
