=
     RDKit          3D

 31 33  0  0  0  0  0  0  0  0999 V2000
    3.2530   69.7870   67.3310 N   0  0  0  0  0  0  0  0  0  0  0  0
    4.5010   70.1490   67.8660 C   0  0  0  0  0  0  0  0  0  0  0  0
    4.8010   70.6450   69.1210 C   0  0  0  0  0  0  0  0  0  0  0  0
    6.1430   70.9240   69.4140 C   0  0  0  0  0  0  0  0  0  0  0  0
    7.1570   70.7130   68.4590 C   0  0  0  0  0  0  0  0  0  0  0  0
    6.8460   70.2230   67.1910 C   0  0  0  0  0  0  0  0  0  0  0  0
    5.5170   69.9550   66.9310 C   0  0  0  0  0  0  0  0  0  0  0  0
    4.8940   69.4550   65.7060 C   0  0  0  0  0  0  0  0  0  0  0  0
    5.4470   69.1740   64.6680 O   0  0  0  0  0  0  0  0  0  0  0  0
    3.3790   69.3770   66.0140 C   0  0  0  0  0  0  0  0  0  0  0  0
    2.5240   69.0390   65.2230 O   0  0  0  0  0  0  0  0  0  0  0  0
    1.9970   69.8200   68.0190 C   0  0  0  0  0  0  0  0  0  0  0  0
    1.4940   68.4690   68.2010 N   0  0  0  0  0  0  0  0  0  0  0  0
    0.2770   66.1090   69.8440 Br  0  0  0  0  0  0  0  0  0  0  0  0
   -0.5240   67.1120   68.4350 C   0  0  0  0  0  0  0  0  0  0  0  0
   -1.8320   66.7820   68.0680 C   0  0  0  0  0  0  0  0  0  0  0  0
   -2.4560   67.4770   67.0360 C   0  0  0  0  0  0  0  0  0  0  0  0
   -1.7750   68.5010   66.3850 C   0  0  0  0  0  0  0  0  0  0  0  0
   -0.4660   68.8290   66.7590 C   0  0  0  0  0  0  0  0  0  0  0  0
    0.2000   68.1260   67.7710 C   0  0  0  0  0  0  0  0  0  0  0  0
    4.0107   70.8155   69.8669 H   0  0  0  0  0  0  0  0  0  0  0  0
    6.4092   71.3146   70.4073 H   0  0  0  0  0  0  0  0  0  0  0  0
    8.2030   70.9367   68.7157 H   0  0  0  0  0  0  0  0  0  0  0  0
    7.6248   70.0575   66.4320 H   0  0  0  0  0  0  0  0  0  0  0  0
    2.1328   70.2936   69.0025 H   0  0  0  0  0  0  0  0  0  0  0  0
    1.2743   70.3970   67.4234 H   0  0  0  0  0  0  0  0  0  0  0  0
    2.0896   67.7575   68.6482 H   0  0  0  0  0  0  0  0  0  0  0  0
   -2.3660   65.9762   68.5928 H   0  0  0  0  0  0  0  0  0  0  0  0
   -3.4823   67.2180   66.7366 H   0  0  0  0  0  0  0  0  0  0  0  0
   -2.2673   69.0556   65.5726 H   0  0  0  0  0  0  0  0  0  0  0  0
    0.0496   69.6553   66.2478 H   0  0  0  0  0  0  0  0  0  0  0  0
  2  1  1  0
  3  2  2  0
  4  3  1  0
  5  4  2  0
  6  5  1  0
  7  2  1  0
  7  6  2  0
  8  7  1  0
  9  8  2  0
 10  8  1  0
 10  1  1  0
 11 10  2  0
 12  1  1  0
 13 12  1  0
 15 14  1  0
 16 15  2  0
 17 16  1  0
 18 17  2  0
 19 18  1  0
 20 19  2  0
 20 15  1  0
 20 13  1  0
  3 21  1  0
  4 22  1  0
  5 23  1  0
  6 24  1  0
 12 25  1  0
 12 26  1  0
 13 27  1  0
 16 28  1  0
 17 29  1  0
 18 30  1  0
 19 31  1  0
M  END
>  <score>  (1) 
-10.112

$$$$
=
     RDKit          3D

 31 33  0  0  0  0  0  0  0  0999 V2000
    3.3940   69.8620   67.4740 N   0  0  0  0  0  0  0  0  0  0  0  0
    3.6870   69.4830   66.1530 C   0  0  0  0  0  0  0  0  0  0  0  0
    2.8290   69.0430   65.1610 C   0  0  0  0  0  0  0  0  0  0  0  0
    3.3770   68.7310   63.9090 C   0  0  0  0  0  0  0  0  0  0  0  0
    4.7600   68.8550   63.6670 C   0  0  0  0  0  0  0  0  0  0  0  0
    5.6200   69.2900   64.6750 C   0  0  0  0  0  0  0  0  0  0  0  0
    5.0530   69.5920   65.8970 C   0  0  0  0  0  0  0  0  0  0  0  0
    5.6930   70.0500   67.1290 C   0  0  0  0  0  0  0  0  0  0  0  0
    6.8720   70.2560   67.3060 O   0  0  0  0  0  0  0  0  0  0  0  0
    4.5490   70.1990   68.1610 C   0  0  0  0  0  0  0  0  0  0  0  0
    4.6930   70.5260   69.3190 O   0  0  0  0  0  0  0  0  0  0  0  0
    2.0930   69.9100   68.0700 C   0  0  0  0  0  0  0  0  0  0  0  0
    1.6460   68.5670   68.4010 N   0  0  0  0  0  0  0  0  0  0  0  0
    0.6250   66.1250   70.0580 Br  0  0  0  0  0  0  0  0  0  0  0  0
   -0.2410   67.0320   68.6240 C   0  0  0  0  0  0  0  0  0  0  0  0
   -1.5070   66.5790   68.2410 C   0  0  0  0  0  0  0  0  0  0  0  0
   -2.1750   67.2000   67.1900 C   0  0  0  0  0  0  0  0  0  0  0  0
   -1.5810   68.2740   66.5360 C   0  0  0  0  0  0  0  0  0  0  0  0
   -0.3140   68.7260   66.9250 C   0  0  0  0  0  0  0  0  0  0  0  0
    0.3970   68.1010   67.9570 C   0  0  0  0  0  0  0  0  0  0  0  0
    1.7500   68.9411   65.3489 H   0  0  0  0  0  0  0  0  0  0  0  0
    2.7161   68.3833   63.1013 H   0  0  0  0  0  0  0  0  0  0  0  0
    5.1644   68.6066   62.6747 H   0  0  0  0  0  0  0  0  0  0  0  0
    6.7022   69.3881   64.5040 H   0  0  0  0  0  0  0  0  0  0  0  0
    2.1349   70.5160   68.9871 H   0  0  0  0  0  0  0  0  0  0  0  0
    1.3863   70.3594   67.3568 H   0  0  0  0  0  0  0  0  0  0  0  0
    2.2496   67.9522   68.9654 H   0  0  0  0  0  0  0  0  0  0  0  0
   -1.9736   65.7342   68.7689 H   0  0  0  0  0  0  0  0  0  0  0  0
   -3.1677   66.8432   66.8781 H   0  0  0  0  0  0  0  0  0  0  0  0
   -2.1091   68.7710   65.7089 H   0  0  0  0  0  0  0  0  0  0  0  0
    0.1318   69.5894   66.4095 H   0  0  0  0  0  0  0  0  0  0  0  0
  2  1  1  0
  3  2  2  0
  4  3  1  0
  5  4  2  0
  6  5  1  0
  7  2  1  0
  7  6  2  0
  8  7  1  0
  9  8  2  0
 10  8  1  0
 10  1  1  0
 11 10  2  0
 12  1  1  0
 13 12  1  0
 15 14  1  0
 16 15  2  0
 17 16  1  0
 18 17  2  0
 19 18  1  0
 20 19  2  0
 20 15  1  0
 20 13  1  0
  3 21  1  0
  4 22  1  0
  5 23  1  0
  6 24  1  0
 12 25  1  0
 12 26  1  0
 13 27  1  0
 16 28  1  0
 17 29  1  0
 18 30  1  0
 19 31  1  0
M  END
>  <score>  (2) 
-9.858

$$$$
=
     RDKit          3D

 31 33  0  0  0  0  0  0  0  0999 V2000
    0.7520   68.7090   68.0130 N   0  0  0  0  0  0  0  0  0  0  0  0
   -0.4880   68.5450   67.3720 C   0  0  0  0  0  0  0  0  0  0  0  0
   -1.1300   69.3890   66.4840 C   0  0  0  0  0  0  0  0  0  0  0  0
   -2.3720   68.9870   65.9750 C   0  0  0  0  0  0  0  0  0  0  0  0
   -2.9560   67.7640   66.3600 C   0  0  0  0  0  0  0  0  0  0  0  0
   -2.3080   66.9210   67.2630 C   0  0  0  0  0  0  0  0  0  0  0  0
   -1.0850   67.3420   67.7460 C   0  0  0  0  0  0  0  0  0  0  0  0
   -0.1920   66.6900   68.7030 C   0  0  0  0  0  0  0  0  0  0  0  0
   -0.3660   65.6310   69.2590 O   0  0  0  0  0  0  0  0  0  0  0  0
    1.0130   67.6480   68.8640 C   0  0  0  0  0  0  0  0  0  0  0  0
    1.9520   67.4670   69.6100 O   0  0  0  0  0  0  0  0  0  0  0  0
    1.6560   69.8050   67.8360 C   0  0  0  0  0  0  0  0  0  0  0  0
    2.9830   69.3100   67.5120 N   0  0  0  0  0  0  0  0  0  0  0  0
    5.9520   70.2370   67.2340 Br  0  0  0  0  0  0  0  0  0  0  0  0
    4.7660   69.6280   65.8720 C   0  0  0  0  0  0  0  0  0  0  0  0
    5.2580   69.5640   64.5650 C   0  0  0  0  0  0  0  0  0  0  0  0
    4.4270   69.1370   63.5330 C   0  0  0  0  0  0  0  0  0  0  0  0
    3.1150   68.7680   63.8150 C   0  0  0  0  0  0  0  0  0  0  0  0
    2.6290   68.8300   65.1260 C   0  0  0  0  0  0  0  0  0  0  0  0
    3.4300   69.2870   66.1800 C   0  0  0  0  0  0  0  0  0  0  0  0
   -0.6790   70.3471   66.1863 H   0  0  0  0  0  0  0  0  0  0  0  0
   -2.9003   69.6375   65.2624 H   0  0  0  0  0  0  0  0  0  0  0  0
   -3.9317   67.4713   65.9448 H   0  0  0  0  0  0  0  0  0  0  0  0
   -2.7513   65.9642   67.5761 H   0  0  0  0  0  0  0  0  0  0  0  0
    1.2962   70.4448   67.0167 H   0  0  0  0  0  0  0  0  0  0  0  0
    1.7059   70.3850   68.7693 H   0  0  0  0  0  0  0  0  0  0  0  0
    3.6007   68.9734   68.2643 H   0  0  0  0  0  0  0  0  0  0  0  0
    6.2987   69.8502   64.3527 H   0  0  0  0  0  0  0  0  0  0  0  0
    4.8050   69.0915   62.5010 H   0  0  0  0  0  0  0  0  0  0  0  0
    2.4565   68.4258   63.0031 H   0  0  0  0  0  0  0  0  0  0  0  0
    1.5962   68.5131   65.3329 H   0  0  0  0  0  0  0  0  0  0  0  0
  2  1  1  0
  3  2  2  0
  4  3  1  0
  5  4  2  0
  6  5  1  0
  7  2  1  0
  7  6  2  0
  8  7  1  0
  9  8  2  0
 10  8  1  0
 10  1  1  0
 11 10  2  0
 12  1  1  0
 13 12  1  0
 15 14  1  0
 16 15  2  0
 17 16  1  0
 18 17  2  0
 19 18  1  0
 20 19  2  0
 20 15  1  0
 20 13  1  0
  3 21  1  0
  4 22  1  0
  5 23  1  0
  6 24  1  0
 12 25  1  0
 12 26  1  0
 13 27  1  0
 16 28  1  0
 17 29  1  0
 18 30  1  0
 19 31  1  0
M  END
>  <score>  (3) 
-9.268

$$$$
=
     RDKit          3D

 31 33  0  0  0  0  0  0  0  0999 V2000
    1.5090   68.7090   66.0030 N   0  0  0  0  0  0  0  0  0  0  0  0
    1.3160   68.7430   64.6120 C   0  0  0  0  0  0  0  0  0  0  0  0
    2.2580   68.7330   63.6000 C   0  0  0  0  0  0  0  0  0  0  0  0
    1.8010   68.7670   62.2750 C   0  0  0  0  0  0  0  0  0  0  0  0
    0.4240   68.8170   61.9810 C   0  0  0  0  0  0  0  0  0  0  0  0
   -0.5210   68.8370   63.0060 C   0  0  0  0  0  0  0  0  0  0  0  0
   -0.0420   68.8000   64.3010 C   0  0  0  0  0  0  0  0  0  0  0  0
   -0.7780   68.8240   65.5630 C   0  0  0  0  0  0  0  0  0  0  0  0
   -1.9780   68.8800   65.7070 O   0  0  0  0  0  0  0  0  0  0  0  0
    0.2990   68.7810   66.6730 C   0  0  0  0  0  0  0  0  0  0  0  0
    0.0750   68.8230   67.8640 O   0  0  0  0  0  0  0  0  0  0  0  0
    2.7680   68.6100   66.6790 C   0  0  0  0  0  0  0  0  0  0  0  0
    3.0720   69.8630   67.3500 N   0  0  0  0  0  0  0  0  0  0  0  0
    5.2600   69.6590   65.1310 Br  0  0  0  0  0  0  0  0  0  0  0  0
    5.4730   70.1130   66.9690 C   0  0  0  0  0  0  0  0  0  0  0  0
    6.7630   70.4090   67.4180 C   0  0  0  0  0  0  0  0  0  0  0  0
    6.9720   70.7340   68.7560 C   0  0  0  0  0  0  0  0  0  0  0  0
    5.8920   70.7690   69.6320 C   0  0  0  0  0  0  0  0  0  0  0  0
    4.6010   70.4750   69.1760 C   0  0  0  0  0  0  0  0  0  0  0  0
    4.3640   70.1120   67.8440 C   0  0  0  0  0  0  0  0  0  0  0  0
    3.3337   68.6994   63.8276 H   0  0  0  0  0  0  0  0  0  0  0  0
    2.5298   68.7544   61.4511 H   0  0  0  0  0  0  0  0  0  0  0  0
    0.0913   68.8405   60.9328 H   0  0  0  0  0  0  0  0  0  0  0  0
   -1.5993   68.8803   62.7930 H   0  0  0  0  0  0  0  0  0  0  0  0
    2.7195   67.8010   67.4227 H   0  0  0  0  0  0  0  0  0  0  0  0
    3.5567   68.3938   65.9434 H   0  0  0  0  0  0  0  0  0  0  0  0
    2.3352   70.5736   67.4643 H   0  0  0  0  0  0  0  0  0  0  0  0
    7.6103   70.3853   66.7170 H   0  0  0  0  0  0  0  0  0  0  0  0
    7.9854   70.9617   69.1181 H   0  0  0  0  0  0  0  0  0  0  0  0
    6.0529   71.0290   70.6886 H   0  0  0  0  0  0  0  0  0  0  0  0
    3.7559   70.5302   69.8780 H   0  0  0  0  0  0  0  0  0  0  0  0
  2  1  1  0
  3  2  2  0
  4  3  1  0
  5  4  2  0
  6  5  1  0
  7  2  1  0
  7  6  2  0
  8  7  1  0
  9  8  2  0
 10  8  1  0
 10  1  1  0
 11 10  2  0
 12  1  1  0
 13 12  1  0
 15 14  1  0
 16 15  2  0
 17 16  1  0
 18 17  2  0
 19 18  1  0
 20 19  2  0
 20 15  1  0
 20 13  1  0
  3 21  1  0
  4 22  1  0
  5 23  1  0
  6 24  1  0
 12 25  1  0
 12 26  1  0
 13 27  1  0
 16 28  1  0
 17 29  1  0
 18 30  1  0
 19 31  1  0
M  END
>  <score>  (4) 
-9.158

$$$$
=
     RDKit          3D

 31 33  0  0  0  0  0  0  0  0999 V2000
    2.0410   68.4000   64.9390 N   0  0  0  0  0  0  0  0  0  0  0  0
    2.5810   68.5860   63.6560 C   0  0  0  0  0  0  0  0  0  0  0  0
    3.9070   68.6340   63.2650 C   0  0  0  0  0  0  0  0  0  0  0  0
    4.1850   68.8240   61.9040 C   0  0  0  0  0  0  0  0  0  0  0  0
    3.1480   68.9700   60.9620 C   0  0  0  0  0  0  0  0  0  0  0  0
    1.8130   68.9310   61.3630 C   0  0  0  0  0  0  0  0  0  0  0  0
    1.5690   68.7390   62.7090 C   0  0  0  0  0  0  0  0  0  0  0  0
    0.2930   68.6700   63.4190 C   0  0  0  0  0  0  0  0  0  0  0  0
   -0.8140   68.7680   62.9420 O   0  0  0  0  0  0  0  0  0  0  0  0
    0.6580   68.4610   64.9090 C   0  0  0  0  0  0  0  0  0  0  0  0
   -0.1410   68.3930   65.8190 O   0  0  0  0  0  0  0  0  0  0  0  0
    2.7830   68.1730   66.1430 C   0  0  0  0  0  0  0  0  0  0  0  0
    3.0190   69.4330   66.8280 N   0  0  0  0  0  0  0  0  0  0  0  0
    3.2790   70.9190   69.5620 Br  0  0  0  0  0  0  0  0  0  0  0  0
    4.6430   70.5240   68.2910 C   0  0  0  0  0  0  0  0  0  0  0  0
    5.9470   70.9280   68.5930 C   0  0  0  0  0  0  0  0  0  0  0  0
    6.9760   70.6740   67.6910 C   0  0  0  0  0  0  0  0  0  0  0  0
    6.6990   70.0100   66.5000 C   0  0  0  0  0  0  0  0  0  0  0  0
    5.3920   69.6040   66.2050 C   0  0  0  0  0  0  0  0  0  0  0  0
    4.3300   69.8750   67.0770 C   0  0  0  0  0  0  0  0  0  0  0  0
    4.7187   68.5264   63.9996 H   0  0  0  0  0  0  0  0  0  0  0  0
    5.2312   68.8597   61.5660 H   0  0  0  0  0  0  0  0  0  0  0  0
    3.3936   69.1162   59.8998 H   0  0  0  0  0  0  0  0  0  0  0  0
    0.9918   69.0478   60.6405 H   0  0  0  0  0  0  0  0  0  0  0  0
    2.2119   67.5020   66.8015 H   0  0  0  0  0  0  0  0  0  0  0  0
    3.7499   67.7139   65.8895 H   0  0  0  0  0  0  0  0  0  0  0  0
    2.2196   70.0064   67.1333 H   0  0  0  0  0  0  0  0  0  0  0  0
    6.1590   71.4450   69.5405 H   0  0  0  0  0  0  0  0  0  0  0  0
    8.0028   70.9964   67.9184 H   0  0  0  0  0  0  0  0  0  0  0  0
    7.5106   69.8031   65.7870 H   0  0  0  0  0  0  0  0  0  0  0  0
    5.1951   69.0609   65.2689 H   0  0  0  0  0  0  0  0  0  0  0  0
  2  1  1  0
  3  2  2  0
  4  3  1  0
  5  4  2  0
  6  5  1  0
  7  2  1  0
  7  6  2  0
  8  7  1  0
  9  8  2  0
 10  8  1  0
 10  1  1  0
 11 10  2  0
 12  1  1  0
 13 12  1  0
 15 14  1  0
 16 15  2  0
 17 16  1  0
 18 17  2  0
 19 18  1  0
 20 19  2  0
 20 15  1  0
 20 13  1  0
  3 21  1  0
  4 22  1  0
  5 23  1  0
  6 24  1  0
 12 25  1  0
 12 26  1  0
 13 27  1  0
 16 28  1  0
 17 29  1  0
 18 30  1  0
 19 31  1  0
M  END
>  <score>  (5) 
-8.97

$$$$
=
     RDKit          3D

 31 33  0  0  0  0  0  0  0  0999 V2000
    3.1530   69.0600   66.5280 N   0  0  0  0  0  0  0  0  0  0  0  0
    4.1590   69.7870   67.1870 C   0  0  0  0  0  0  0  0  0  0  0  0
    4.1570   70.3220   68.4620 C   0  0  0  0  0  0  0  0  0  0  0  0
    5.3030   71.0060   68.8900 C   0  0  0  0  0  0  0  0  0  0  0  0
    6.4220   71.1520   68.0470 C   0  0  0  0  0  0  0  0  0  0  0  0
    6.4150   70.6180   66.7590 C   0  0  0  0  0  0  0  0  0  0  0  0
    5.2740   69.9470   66.3650 C   0  0  0  0  0  0  0  0  0  0  0  0
    4.9710   69.3040   65.0870 C   0  0  0  0  0  0  0  0  0  0  0  0
    5.6870   69.2390   64.1150 O   0  0  0  0  0  0  0  0  0  0  0  0
    3.5370   68.7410   65.2360 C   0  0  0  0  0  0  0  0  0  0  0  0
    2.9190   68.1680   64.3640 O   0  0  0  0  0  0  0  0  0  0  0  0
    1.8890   68.6750   67.0820 C   0  0  0  0  0  0  0  0  0  0  0  0
    1.0470   68.1010   66.0470 N   0  0  0  0  0  0  0  0  0  0  0  0
   -0.1580   69.2670   63.4120 Br  0  0  0  0  0  0  0  0  0  0  0  0
   -1.0710   68.7000   64.9860 C   0  0  0  0  0  0  0  0  0  0  0  0
   -2.4660   68.7940   64.9950 C   0  0  0  0  0  0  0  0  0  0  0  0
   -3.1770   68.4040   66.1260 C   0  0  0  0  0  0  0  0  0  0  0  0
   -2.4930   67.9140   67.2340 C   0  0  0  0  0  0  0  0  0  0  0  0
   -1.0970   67.8190   67.2180 C   0  0  0  0  0  0  0  0  0  0  0  0
   -0.3510   68.2340   66.1080 C   0  0  0  0  0  0  0  0  0  0  0  0
    3.2825   70.2141   69.1205 H   0  0  0  0  0  0  0  0  0  0  0  0
    5.3290   71.4364   69.9020 H   0  0  0  0  0  0  0  0  0  0  0  0
    7.3095   71.6923   68.4081 H   0  0  0  0  0  0  0  0  0  0  0  0
    7.2792   70.7263   66.0871 H   0  0  0  0  0  0  0  0  0  0  0  0
    2.0506   67.9299   67.8749 H   0  0  0  0  0  0  0  0  0  0  0  0
    1.3925   69.5631   67.5001 H   0  0  0  0  0  0  0  0  0  0  0  0
    1.4779   67.5923   65.2618 H   0  0  0  0  0  0  0  0  0  0  0  0
   -2.9994   69.1747   64.1116 H   0  0  0  0  0  0  0  0  0  0  0  0
   -4.2740   68.4827   66.1438 H   0  0  0  0  0  0  0  0  0  0  0  0
   -3.0525   67.5996   68.1273 H   0  0  0  0  0  0  0  0  0  0  0  0
   -0.5749   67.4099   68.0955 H   0  0  0  0  0  0  0  0  0  0  0  0
  2  1  1  0
  3  2  2  0
  4  3  1  0
  5  4  2  0
  6  5  1  0
  7  2  1  0
  7  6  2  0
  8  7  1  0
  9  8  2  0
 10  8  1  0
 10  1  1  0
 11 10  2  0
 12  1  1  0
 13 12  1  0
 15 14  1  0
 16 15  2  0
 17 16  1  0
 18 17  2  0
 19 18  1  0
 20 19  2  0
 20 15  1  0
 20 13  1  0
  3 21  1  0
  4 22  1  0
  5 23  1  0
  6 24  1  0
 12 25  1  0
 12 26  1  0
 13 27  1  0
 16 28  1  0
 17 29  1  0
 18 30  1  0
 19 31  1  0
M  END
>  <score>  (6) 
-8.728

$$$$
=
     RDKit          3D

 31 33  0  0  0  0  0  0  0  0999 V2000
    1.3310   68.3200   65.9560 N   0  0  0  0  0  0  0  0  0  0  0  0
    0.2950   67.8190   66.7610 C   0  0  0  0  0  0  0  0  0  0  0  0
    0.3650   67.2490   68.0190 C   0  0  0  0  0  0  0  0  0  0  0  0
   -0.8300   66.8310   68.6200 C   0  0  0  0  0  0  0  0  0  0  0  0
   -2.0670   66.9790   67.9610 C   0  0  0  0  0  0  0  0  0  0  0  0
   -2.1300   67.5460   66.6880 C   0  0  0  0  0  0  0  0  0  0  0  0
   -0.9370   67.9510   66.1220 C   0  0  0  0  0  0  0  0  0  0  0  0
   -0.6900   68.5550   64.8150 C   0  0  0  0  0  0  0  0  0  0  0  0
   -1.5090   68.8200   63.9660 O   0  0  0  0  0  0  0  0  0  0  0  0
    0.8420   68.7670   64.7390 C   0  0  0  0  0  0  0  0  0  0  0  0
    1.4370   69.2160   63.7830 O   0  0  0  0  0  0  0  0  0  0  0  0
    2.7190   68.3820   66.3060 C   0  0  0  0  0  0  0  0  0  0  0  0
    3.0650   69.7280   66.7330 N   0  0  0  0  0  0  0  0  0  0  0  0
    5.3870   69.4340   64.6660 Br  0  0  0  0  0  0  0  0  0  0  0  0
    5.4850   69.9610   66.4940 C   0  0  0  0  0  0  0  0  0  0  0  0
    6.7450   70.2740   67.0120 C   0  0  0  0  0  0  0  0  0  0  0  0
    6.8710   70.6520   68.3460 C   0  0  0  0  0  0  0  0  0  0  0  0
    5.7380   70.7230   69.1500 C   0  0  0  0  0  0  0  0  0  0  0  0
    4.4780   70.4110   68.6260 C   0  0  0  0  0  0  0  0  0  0  0  0
    4.3240   69.9960   67.2970 C   0  0  0  0  0  0  0  0  0  0  0  0
    1.3300   67.1273   68.5327 H   0  0  0  0  0  0  0  0  0  0  0  0
   -0.8021   66.3799   69.6228 H   0  0  0  0  0  0  0  0  0  0  0  0
   -2.9911   66.6444   68.4549 H   0  0  0  0  0  0  0  0  0  0  0  0
   -3.0869   67.6652   66.1587 H   0  0  0  0  0  0  0  0  0  0  0  0
    2.9196   67.6769   67.1261 H   0  0  0  0  0  0  0  0  0  0  0  0
    3.3249   68.1151   65.4276 H   0  0  0  0  0  0  0  0  0  0  0  0
    2.3822   70.4910   66.6213 H   0  0  0  0  0  0  0  0  0  0  0  0
    7.6347   70.2218   66.3673 H   0  0  0  0  0  0  0  0  0  0  0  0
    7.8605   70.8931   68.7617 H   0  0  0  0  0  0  0  0  0  0  0  0
    5.8327   71.0260   70.2032 H   0  0  0  0  0  0  0  0  0  0  0  0
    3.5908   70.4934   69.2710 H   0  0  0  0  0  0  0  0  0  0  0  0
  2  1  1  0
  3  2  2  0
  4  3  1  0
  5  4  2  0
  6  5  1  0
  7  2  1  0
  7  6  2  0
  8  7  1  0
  9  8  2  0
 10  8  1  0
 10  1  1  0
 11 10  2  0
 12  1  1  0
 13 12  1  0
 15 14  1  0
 16 15  2  0
 17 16  1  0
 18 17  2  0
 19 18  1  0
 20 19  2  0
 20 15  1  0
 20 13  1  0
  3 21  1  0
  4 22  1  0
  5 23  1  0
  6 24  1  0
 12 25  1  0
 12 26  1  0
 13 27  1  0
 16 28  1  0
 17 29  1  0
 18 30  1  0
 19 31  1  0
M  END
>  <score>  (7) 
-8.682

$$$$
=
     RDKit          3D

 31 33  0  0  0  0  0  0  0  0999 V2000
    2.1200   68.8630   64.5880 N   0  0  0  0  0  0  0  0  0  0  0  0
    1.0130   68.8070   65.4510 C   0  0  0  0  0  0  0  0  0  0  0  0
    0.9800   68.8490   66.8330 C   0  0  0  0  0  0  0  0  0  0  0  0
   -0.2690   68.7820   67.4640 C   0  0  0  0  0  0  0  0  0  0  0  0
   -1.4580   68.6670   66.7170 C   0  0  0  0  0  0  0  0  0  0  0  0
   -1.4180   68.6160   65.3230 C   0  0  0  0  0  0  0  0  0  0  0  0
   -0.1740   68.6860   64.7290 C   0  0  0  0  0  0  0  0  0  0  0  0
    0.1810   68.6420   63.3120 C   0  0  0  0  0  0  0  0  0  0  0  0
   -0.5750   68.5340   62.3730 O   0  0  0  0  0  0  0  0  0  0  0  0
    1.7240   68.7440   63.2660 C   0  0  0  0  0  0  0  0  0  0  0  0
    2.3970   68.7030   62.2580 O   0  0  0  0  0  0  0  0  0  0  0  0
    3.4880   69.0250   64.9790 C   0  0  0  0  0  0  0  0  0  0  0  0
    3.5740   69.2430   66.4130 N   0  0  0  0  0  0  0  0  0  0  0  0
    2.9790   70.5710   69.1760 Br  0  0  0  0  0  0  0  0  0  0  0  0
    4.6400   70.4500   68.2500 C   0  0  0  0  0  0  0  0  0  0  0  0
    5.7650   71.0100   68.8630 C   0  0  0  0  0  0  0  0  0  0  0  0
    6.9990   70.9590   68.2200 C   0  0  0  0  0  0  0  0  0  0  0  0
    7.1030   70.3410   66.9780 C   0  0  0  0  0  0  0  0  0  0  0  0
    5.9740   69.7790   66.3710 C   0  0  0  0  0  0  0  0  0  0  0  0
    4.7120   69.8450   66.9770 C   0  0  0  0  0  0  0  0  0  0  0  0
    1.9069   68.9325   67.4193 H   0  0  0  0  0  0  0  0  0  0  0  0
   -0.3223   68.8198   68.5621 H   0  0  0  0  0  0  0  0  0  0  0  0
   -2.4260   68.6170   67.2370 H   0  0  0  0  0  0  0  0  0  0  0  0
   -2.3364   68.5242   64.7246 H   0  0  0  0  0  0  0  0  0  0  0  0
    4.0521   68.1185   64.7141 H   0  0  0  0  0  0  0  0  0  0  0  0
    3.9117   69.8951   64.4561 H   0  0  0  0  0  0  0  0  0  0  0  0
    2.7946   68.9540   67.0212 H   0  0  0  0  0  0  0  0  0  0  0  0
    5.6756   71.4889   69.8492 H   0  0  0  0  0  0  0  0  0  0  0  0
    7.8870   71.4051   68.6917 H   0  0  0  0  0  0  0  0  0  0  0  0
    8.0777   70.2938   66.4703 H   0  0  0  0  0  0  0  0  0  0  0  0
    6.0793   69.2754   65.3987 H   0  0  0  0  0  0  0  0  0  0  0  0
  2  1  1  0
  3  2  2  0
  4  3  1  0
  5  4  2  0
  6  5  1  0
  7  2  1  0
  7  6  2  0
  8  7  1  0
  9  8  2  0
 10  8  1  0
 10  1  1  0
 11 10  2  0
 12  1  1  0
 13 12  1  0
 15 14  1  0
 16 15  2  0
 17 16  1  0
 18 17  2  0
 19 18  1  0
 20 19  2  0
 20 15  1  0
 20 13  1  0
  3 21  1  0
  4 22  1  0
  5 23  1  0
  6 24  1  0
 12 25  1  0
 12 26  1  0
 13 27  1  0
 16 28  1  0
 17 29  1  0
 18 30  1  0
 19 31  1  0
M  END
>  <score>  (8) 
-8.338

$$$$
=
     RDKit          3D

 31 33  0  0  0  0  0  0  0  0999 V2000
    1.1810   65.1300   70.6700 N   0  0  0  0  0  0  0  0  0  0  0  0
    1.8030   63.8770   70.5400 C   0  0  0  0  0  0  0  0  0  0  0  0
    2.7800   63.4760   69.6470 C   0  0  0  0  0  0  0  0  0  0  0  0
    3.2450   62.1560   69.7290 C   0  0  0  0  0  0  0  0  0  0  0  0
    2.7300   61.2610   70.6870 C   0  0  0  0  0  0  0  0  0  0  0  0
    1.7380   61.6680   71.5780 C   0  0  0  0  0  0  0  0  0  0  0  0
    1.3010   62.9740   71.4760 C   0  0  0  0  0  0  0  0  0  0  0  0
    0.2760   63.6720   72.2500 C   0  0  0  0  0  0  0  0  0  0  0  0
   -0.3930   63.2200   73.1500 O   0  0  0  0  0  0  0  0  0  0  0  0
    0.2170   65.1040   71.6650 C   0  0  0  0  0  0  0  0  0  0  0  0
   -0.5460   65.9740   72.0260 O   0  0  0  0  0  0  0  0  0  0  0  0
    1.4750   66.3030   69.9030 C   0  0  0  0  0  0  0  0  0  0  0  0
    0.3730   66.5970   69.0020 N   0  0  0  0  0  0  0  0  0  0  0  0
   -2.2650   67.1650   67.4310 Br  0  0  0  0  0  0  0  0  0  0  0  0
   -0.4800   67.6400   66.9640 C   0  0  0  0  0  0  0  0  0  0  0  0
   -0.2880   68.3460   65.7730 C   0  0  0  0  0  0  0  0  0  0  0  0
    0.9990   68.7050   65.3810 C   0  0  0  0  0  0  0  0  0  0  0  0
    2.0820   68.3660   66.1860 C   0  0  0  0  0  0  0  0  0  0  0  0
    1.8840   67.6620   67.3800 C   0  0  0  0  0  0  0  0  0  0  0  0
    0.6050   67.2580   67.7830 C   0  0  0  0  0  0  0  0  0  0  0  0
    3.1802   64.1719   68.8950 H   0  0  0  0  0  0  0  0  0  0  0  0
    4.0253   61.8134   69.0334 H   0  0  0  0  0  0  0  0  0  0  0  0
    3.1141   60.2313   70.7326 H   0  0  0  0  0  0  0  0  0  0  0  0
    1.3221   60.9798   72.3285 H   0  0  0  0  0  0  0  0  0  0  0  0
    1.6266   67.1543   70.5829 H   0  0  0  0  0  0  0  0  0  0  0  0
    2.3872   66.1295   69.3132 H   0  0  0  0  0  0  0  0  0  0  0  0
   -0.5850   66.3190   69.2585 H   0  0  0  0  0  0  0  0  0  0  0  0
   -1.1511   68.6172   65.1472 H   0  0  0  0  0  0  0  0  0  0  0  0
    1.1585   69.2532   64.4408 H   0  0  0  0  0  0  0  0  0  0  0  0
    3.0997   68.6527   65.8826 H   0  0  0  0  0  0  0  0  0  0  0  0
    2.7501   67.4215   68.0140 H   0  0  0  0  0  0  0  0  0  0  0  0
  2  1  1  0
  3  2  2  0
  4  3  1  0
  5  4  2  0
  6  5  1  0
  7  2  1  0
  7  6  2  0
  8  7  1  0
  9  8  2  0
 10  8  1  0
 10  1  1  0
 11 10  2  0
 12  1  1  0
 13 12  1  0
 15 14  1  0
 16 15  2  0
 17 16  1  0
 18 17  2  0
 19 18  1  0
 20 19  2  0
 20 15  1  0
 20 13  1  0
  3 21  1  0
  4 22  1  0
  5 23  1  0
  6 24  1  0
 12 25  1  0
 12 26  1  0
 13 27  1  0
 16 28  1  0
 17 29  1  0
 18 30  1  0
 19 31  1  0
M  END
>  <score>  (9) 
-8.012

$$$$
