=
     RDKit          3D

 45 44  0  0  0  0  0  0  0  0999 V2000
    2.9410   66.2650   64.3480 C   0  0  0  0  0  0  0  0  0  0  0  0
    2.9760   65.1530   64.8640 O   0  0  0  0  0  0  0  0  0  0  0  0
    4.3770   66.9750   63.6470 S   0  0  0  0  0  0  0  0  0  0  0  0
    3.9230   68.7320   63.6860 C   0  0  0  0  0  0  0  0  0  0  0  0
    4.6890   69.4460   64.7990 C   0  0  0  0  0  0  0  0  0  0  0  0
    4.0150   69.2180   66.1560 C   0  0  0  0  0  0  0  0  0  0  0  0
    4.5860   70.0950   67.2750 C   0  0  0  0  0  0  0  0  0  0  0  0
    6.1090   70.2290   67.2270 C   0  0  0  0  0  0  0  0  0  0  0  0
    7.3100   70.8210   69.3630 C   0  0  0  0  0  0  0  0  0  0  0  0
    6.5930   71.3600   68.1360 C   0  0  0  0  0  0  0  0  0  0  0  0
    1.8060   67.0280   64.3480 O   0  0  0  0  0  0  0  0  0  0  0  0
    1.1190   67.0770   65.6120 C   0  0  0  0  0  0  0  0  0  0  0  0
    0.3140   68.3810   65.7650 C   0  0  0  0  0  0  0  0  0  0  0  0
   -0.4960   68.4930   67.0750 N   0  0  0  0  0  4  0  0  0  0  0  0
   -0.4760   69.9090   67.6320 C   0  0  0  0  0  0  0  0  0  0  0  0
   -1.9420   68.0360   66.8570 C   0  0  0  0  0  0  0  0  0  0  0  0
    0.1410   67.5550   68.1050 C   0  0  0  0  0  0  0  0  0  0  0  0
    4.1712   69.1938   62.7190 H   0  0  0  0  0  0  0  0  0  0  0  0
    2.8433   68.8215   63.8764 H   0  0  0  0  0  0  0  0  0  0  0  0
    5.7169   69.0562   64.8368 H   0  0  0  0  0  0  0  0  0  0  0  0
    4.6964   70.5251   64.5858 H   0  0  0  0  0  0  0  0  0  0  0  0
    2.9421   69.4383   66.0537 H   0  0  0  0  0  0  0  0  0  0  0  0
    4.1999   68.1710   66.4381 H   0  0  0  0  0  0  0  0  0  0  0  0
    4.1451   71.0992   67.1899 H   0  0  0  0  0  0  0  0  0  0  0  0
    4.3335   69.6085   68.2287 H   0  0  0  0  0  0  0  0  0  0  0  0
    6.5631   69.2833   67.5579 H   0  0  0  0  0  0  0  0  0  0  0  0
    6.4062   70.4609   66.1936 H   0  0  0  0  0  0  0  0  0  0  0  0
    6.8137   71.1941   70.2711 H   0  0  0  0  0  0  0  0  0  0  0  0
    7.2779   69.7215   69.3530 H   0  0  0  0  0  0  0  0  0  0  0  0
    8.3573   71.1573   69.3530 H   0  0  0  0  0  0  0  0  0  0  0  0
    5.7256   71.9534   68.4609 H   0  0  0  0  0  0  0  0  0  0  0  0
    7.3013   71.9804   67.5673 H   0  0  0  0  0  0  0  0  0  0  0  0
    0.4305   66.2217   65.6783 H   0  0  0  0  0  0  0  0  0  0  0  0
    1.8695   67.0377   66.4152 H   0  0  0  0  0  0  0  0  0  0  0  0
    1.0187   69.2247   65.7254 H   0  0  0  0  0  0  0  0  0  0  0  0
   -0.4200   68.3893   64.9458 H   0  0  0  0  0  0  0  0  0  0  0  0
   -0.4765   69.8706   68.7313 H   0  0  0  0  0  0  0  0  0  0  0  0
    0.4296   70.4273   67.2837 H   0  0  0  0  0  0  0  0  0  0  0  0
   -1.3666   70.4527   67.2837 H   0  0  0  0  0  0  0  0  0  0  0  0
   -2.4288   67.8822   67.8314 H   0  0  0  0  0  0  0  0  0  0  0  0
   -2.4884   68.8053   66.2916 H   0  0  0  0  0  0  0  0  0  0  0  0
   -1.9471   67.0925   66.2916 H   0  0  0  0  0  0  0  0  0  0  0  0
   -0.0983   67.9074   69.1192 H   0  0  0  0  0  0  0  0  0  0  0  0
   -0.2536   66.5375   67.9677 H   0  0  0  0  0  0  0  0  0  0  0  0
    1.2324   67.5466   67.9677 H   0  0  0  0  0  0  0  0  0  0  0  0
  2  1  2  0
  3  1  1  0
  4  3  1  0
  5  4  1  0
  6  5  1  0
  7  6  1  0
  8  7  1  0
 10  9  1  0
 10  8  1  0
 11  1  1  0
 12 11  1  0
 13 12  1  0
 14 13  1  0
 15 14  1  0
 16 14  1  0
 17 14  1  0
  4 18  1  0
  4 19  1  0
  5 20  1  0
  5 21  1  0
  6 22  1  0
  6 23  1  0
  7 24  1  0
  7 25  1  0
  8 26  1  0
  8 27  1  0
  9 28  1  0
  9 29  1  0
  9 30  1  0
 10 31  1  0
 10 32  1  0
 12 33  1  0
 12 34  1  0
 13 35  1  0
 13 36  1  0
 15 37  1  0
 15 38  1  0
 15 39  1  0
 16 40  1  0
 16 41  1  0
 16 42  1  0
 17 43  1  0
 17 44  1  0
 17 45  1  0
M  CHG  1  14   1
M  END
>  <score>  (1) 
-6.16

$$$$
=
     RDKit          3D

 45 44  0  0  0  0  0  0  0  0999 V2000
    0.9620   67.6150   65.9370 C   0  0  0  0  0  0  0  0  0  0  0  0
    0.8450   66.5230   65.3930 O   0  0  0  0  0  0  0  0  0  0  0  0
    0.8380   67.7690   67.6750 S   0  0  0  0  0  0  0  0  0  0  0  0
    1.1340   69.5500   67.8650 C   0  0  0  0  0  0  0  0  0  0  0  0
    2.4200   69.7860   68.6550 C   0  0  0  0  0  0  0  0  0  0  0  0
    3.6330   69.8270   67.7190 C   0  0  0  0  0  0  0  0  0  0  0  0
    4.7710   70.7140   68.2360 C   0  0  0  0  0  0  0  0  0  0  0  0
    6.1470   70.3100   67.7060 C   0  0  0  0  0  0  0  0  0  0  0  0
    7.2580   70.6790   69.9390 C   0  0  0  0  0  0  0  0  0  0  0  0
    7.2640   71.0330   68.4600 C   0  0  0  0  0  0  0  0  0  0  0  0
    1.1320   68.7670   65.2210 O   0  0  0  0  0  0  0  0  0  0  0  0
    1.6820   68.5750   63.9040 C   0  0  0  0  0  0  0  0  0  0  0  0
    3.1980   68.8460   63.8830 C   0  0  0  0  0  0  0  0  0  0  0  0
    3.9230   68.3770   62.6030 N   0  0  0  0  0  4  0  0  0  0  0  0
    4.2120   66.8830   62.6330 C   0  0  0  0  0  0  0  0  0  0  0  0
    3.1030   68.7270   61.3580 C   0  0  0  0  0  0  0  0  0  0  0  0
    5.2550   69.1280   62.5120 C   0  0  0  0  0  0  0  0  0  0  0  0
    1.2276   70.0115   66.8709 H   0  0  0  0  0  0  0  0  0  0  0  0
    0.2897   69.9998   68.4080 H   0  0  0  0  0  0  0  0  0  0  0  0
    2.3443   70.7444   69.1896 H   0  0  0  0  0  0  0  0  0  0  0  0
    2.5526   68.9594   69.3686 H   0  0  0  0  0  0  0  0  0  0  0  0
    4.0160   68.8028   67.5995 H   0  0  0  0  0  0  0  0  0  0  0  0
    3.2931   70.2577   66.7656 H   0  0  0  0  0  0  0  0  0  0  0  0
    4.5706   71.7514   67.9299 H   0  0  0  0  0  0  0  0  0  0  0  0
    4.7990   70.6002   69.3297 H   0  0  0  0  0  0  0  0  0  0  0  0
    6.2747   69.2245   67.8299 H   0  0  0  0  0  0  0  0  0  0  0  0
    6.2067   70.5887   66.6436 H   0  0  0  0  0  0  0  0  0  0  0  0
    7.2736   71.6021   70.5370 H   0  0  0  0  0  0  0  0  0  0  0  0
    6.3500   70.1046   70.1749 H   0  0  0  0  0  0  0  0  0  0  0  0
    8.1460   70.0742   70.1749 H   0  0  0  0  0  0  0  0  0  0  0  0
    7.1237   72.1186   68.3518 H   0  0  0  0  0  0  0  0  0  0  0  0
    8.2280   70.7182   68.0337 H   0  0  0  0  0  0  0  0  0  0  0  0
    1.4995   67.5374   63.5878 H   0  0  0  0  0  0  0  0  0  0  0  0
    1.1942   69.2836   63.2185 H   0  0  0  0  0  0  0  0  0  0  0  0
    3.3531   69.9301   63.9861 H   0  0  0  0  0  0  0  0  0  0  0  0
    3.6275   68.2647   64.7122 H   0  0  0  0  0  0  0  0  0  0  0  0
    4.2777   66.5432   63.6771 H   0  0  0  0  0  0  0  0  0  0  0  0
    3.4018   66.3425   62.1218 H   0  0  0  0  0  0  0  0  0  0  0  0
    5.1654   66.6836   62.1218 H   0  0  0  0  0  0  0  0  0  0  0  0
    2.1312   69.1418   61.6637 H   0  0  0  0  0  0  0  0  0  0  0  0
    3.6470   69.4713   60.7580 H   0  0  0  0  0  0  0  0  0  0  0  0
    2.9418   67.8193   60.7580 H   0  0  0  0  0  0  0  0  0  0  0  0
    5.6275   69.3380   63.5255 H   0  0  0  0  0  0  0  0  0  0  0  0
    5.9881   68.5103   61.9726 H   0  0  0  0  0  0  0  0  0  0  0  0
    5.1059   70.0750   61.9726 H   0  0  0  0  0  0  0  0  0  0  0  0
  2  1  2  0
  3  1  1  0
  4  3  1  0
  5  4  1  0
  6  5  1  0
  7  6  1  0
  8  7  1  0
 10  9  1  0
 10  8  1  0
 11  1  1  0
 12 11  1  0
 13 12  1  0
 14 13  1  0
 15 14  1  0
 16 14  1  0
 17 14  1  0
  4 18  1  0
  4 19  1  0
  5 20  1  0
  5 21  1  0
  6 22  1  0
  6 23  1  0
  7 24  1  0
  7 25  1  0
  8 26  1  0
  8 27  1  0
  9 28  1  0
  9 29  1  0
  9 30  1  0
 10 31  1  0
 10 32  1  0
 12 33  1  0
 12 34  1  0
 13 35  1  0
 13 36  1  0
 15 37  1  0
 15 38  1  0
 15 39  1  0
 16 40  1  0
 16 41  1  0
 16 42  1  0
 17 43  1  0
 17 44  1  0
 17 45  1  0
M  CHG  1  14   1
M  END
>  <score>  (2) 
-6.13

$$$$
=
     RDKit          3D

 45 44  0  0  0  0  0  0  0  0999 V2000
    1.8960   68.1670   62.7380 C   0  0  0  0  0  0  0  0  0  0  0  0
    1.7970   68.9050   61.7650 O   0  0  0  0  0  0  0  0  0  0  0  0
    3.4240   67.4190   63.1450 S   0  0  0  0  0  0  0  0  0  0  0  0
    4.5750   68.5930   62.3760 C   0  0  0  0  0  0  0  0  0  0  0  0
    5.2970   69.4010   63.4540 C   0  0  0  0  0  0  0  0  0  0  0  0
    4.4260   69.5350   64.7070 C   0  0  0  0  0  0  0  0  0  0  0  0
    5.2240   69.4650   66.0140 C   0  0  0  0  0  0  0  0  0  0  0  0
    4.4320   69.9280   67.2370 C   0  0  0  0  0  0  0  0  0  0  0  0
    6.7590   70.7370   67.7720 C   0  0  0  0  0  0  0  0  0  0  0  0
    5.2880   70.8080   68.1500 C   0  0  0  0  0  0  0  0  0  0  0  0
    0.8180   67.8440   63.5150 O   0  0  0  0  0  0  0  0  0  0  0  0
    0.6700   68.6530   64.6960 C   0  0  0  0  0  0  0  0  0  0  0  0
   -0.8030   68.7340   65.1420 C   0  0  0  0  0  0  0  0  0  0  0  0
   -1.0480   68.4050   66.6310 N   0  0  0  0  0  4  0  0  0  0  0  0
   -2.4880   67.9850   66.8860 C   0  0  0  0  0  0  0  0  0  0  0  0
   -0.0900   67.3090   67.1070 C   0  0  0  0  0  0  0  0  0  0  0  0
   -0.7580   69.6680   67.4470 C   0  0  0  0  0  0  0  0  0  0  0  0
    5.3148   68.0396   61.7791 H   0  0  0  0  0  0  0  0  0  0  0  0
    4.0105   69.2796   61.7281 H   0  0  0  0  0  0  0  0  0  0  0  0
    6.2349   68.8913   63.7194 H   0  0  0  0  0  0  0  0  0  0  0  0
    5.5063   70.4066   63.0605 H   0  0  0  0  0  0  0  0  0  0  0  0
    3.9055   70.5033   64.6678 H   0  0  0  0  0  0  0  0  0  0  0  0
    3.7263   68.6863   64.7081 H   0  0  0  0  0  0  0  0  0  0  0  0
    5.5368   68.4229   66.1757 H   0  0  0  0  0  0  0  0  0  0  0  0
    6.0814   70.1457   65.9067 H   0  0  0  0  0  0  0  0  0  0  0  0
    3.5571   70.5039   66.9009 H   0  0  0  0  0  0  0  0  0  0  0  0
    4.1171   69.0399   67.8046 H   0  0  0  0  0  0  0  0  0  0  0  0
    7.3713   70.7074   68.6854 H   0  0  0  0  0  0  0  0  0  0  0  0
    6.9417   69.8290   67.1786 H   0  0  0  0  0  0  0  0  0  0  0  0
    7.0283   71.6232   67.1786 H   0  0  0  0  0  0  0  0  0  0  0  0
    5.1690   70.4673   69.1891 H   0  0  0  0  0  0  0  0  0  0  0  0
    4.9528   71.8498   68.0390 H   0  0  0  0  0  0  0  0  0  0  0  0
    1.2661   68.2122   65.5086 H   0  0  0  0  0  0  0  0  0  0  0  0
    1.0176   69.6705   64.4641 H   0  0  0  0  0  0  0  0  0  0  0  0
   -1.1617   69.7567   64.9540 H   0  0  0  0  0  0  0  0  0  0  0  0
   -1.3441   67.9710   64.5632 H   0  0  0  0  0  0  0  0  0  0  0  0
   -2.6682   67.9325   67.9699 H   0  0  0  0  0  0  0  0  0  0  0  0
   -3.1699   68.7217   66.4362 H   0  0  0  0  0  0  0  0  0  0  0  0
   -2.6670   66.9972   66.4362 H   0  0  0  0  0  0  0  0  0  0  0  0
   -0.0728   67.2893   68.2067 H   0  0  0  0  0  0  0  0  0  0  0  0
   -0.4308   66.3342   66.7281 H   0  0  0  0  0  0  0  0  0  0  0  0
    0.9217   67.5163   66.7281 H   0  0  0  0  0  0  0  0  0  0  0  0
   -0.8122   69.4318   68.5200 H   0  0  0  0  0  0  0  0  0  0  0  0
    0.2486   70.0387   67.2036 H   0  0  0  0  0  0  0  0  0  0  0  0
   -1.5021   70.4407   67.2036 H   0  0  0  0  0  0  0  0  0  0  0  0
  2  1  2  0
  3  1  1  0
  4  3  1  0
  5  4  1  0
  6  5  1  0
  7  6  1  0
  8  7  1  0
 10  9  1  0
 10  8  1  0
 11  1  1  0
 12 11  1  0
 13 12  1  0
 14 13  1  0
 15 14  1  0
 16 14  1  0
 17 14  1  0
  4 18  1  0
  4 19  1  0
  5 20  1  0
  5 21  1  0
  6 22  1  0
  6 23  1  0
  7 24  1  0
  7 25  1  0
  8 26  1  0
  8 27  1  0
  9 28  1  0
  9 29  1  0
  9 30  1  0
 10 31  1  0
 10 32  1  0
 12 33  1  0
 12 34  1  0
 13 35  1  0
 13 36  1  0
 15 37  1  0
 15 38  1  0
 15 39  1  0
 16 40  1  0
 16 41  1  0
 16 42  1  0
 17 43  1  0
 17 44  1  0
 17 45  1  0
M  CHG  1  14   1
M  END
>  <score>  (3) 
-5.957

$$$$
=
     RDKit          3D

 45 44  0  0  0  0  0  0  0  0999 V2000
    0.7280   67.7470   68.0440 C   0  0  0  0  0  0  0  0  0  0  0  0
   -0.3860   68.2570   68.0020 O   0  0  0  0  0  0  0  0  0  0  0  0
    1.6490   67.4810   66.5810 S   0  0  0  0  0  0  0  0  0  0  0  0
    2.6610   68.9880   66.5570 C   0  0  0  0  0  0  0  0  0  0  0  0
    3.4510   69.0680   65.2520 C   0  0  0  0  0  0  0  0  0  0  0  0
    4.8520   69.6380   65.4970 C   0  0  0  0  0  0  0  0  0  0  0  0
    5.1540   69.8950   66.9770 C   0  0  0  0  0  0  0  0  0  0  0  0
    6.4700   70.6390   67.2100 C   0  0  0  0  0  0  0  0  0  0  0  0
    7.5170   70.8530   69.4930 C   0  0  0  0  0  0  0  0  0  0  0  0
    6.4550   71.3860   68.5440 C   0  0  0  0  0  0  0  0  0  0  0  0
    1.2800   67.3070   69.2160 O   0  0  0  0  0  0  0  0  0  0  0  0
    0.7840   66.0330   69.6670 C   0  0  0  0  0  0  0  0  0  0  0  0
    1.8920   65.2060   70.3450 C   0  0  0  0  0  0  0  0  0  0  0  0
    1.4810   63.7710   70.7410 N   0  0  0  0  0  4  0  0  0  0  0  0
    1.7720   63.4840   72.2070 C   0  0  0  0  0  0  0  0  0  0  0  0
   -0.0030   63.5330   70.4450 C   0  0  0  0  0  0  0  0  0  0  0  0
    2.2910   62.7940   69.8840 C   0  0  0  0  0  0  0  0  0  0  0  0
    2.0059   69.8677   66.6404 H   0  0  0  0  0  0  0  0  0  0  0  0
    3.3638   68.9637   67.4028 H   0  0  0  0  0  0  0  0  0  0  0  0
    3.5422   68.0590   64.8234 H   0  0  0  0  0  0  0  0  0  0  0  0
    2.9169   69.7328   64.5572 H   0  0  0  0  0  0  0  0  0  0  0  0
    5.5922   68.9227   65.1092 H   0  0  0  0  0  0  0  0  0  0  0  0
    4.9024   70.6087   64.9819 H   0  0  0  0  0  0  0  0  0  0  0  0
    4.3350   70.4948   67.4006 H   0  0  0  0  0  0  0  0  0  0  0  0
    5.2464   68.9130   67.4640 H   0  0  0  0  0  0  0  0  0  0  0  0
    7.2965   69.9131   67.2147 H   0  0  0  0  0  0  0  0  0  0  0  0
    6.6026   71.3731   66.4016 H   0  0  0  0  0  0  0  0  0  0  0  0
    7.1946   71.0148   70.5322 H   0  0  0  0  0  0  0  0  0  0  0  0
    7.6594   69.7766   69.3166 H   0  0  0  0  0  0  0  0  0  0  0  0
    8.4652   71.3820   69.3166 H   0  0  0  0  0  0  0  0  0  0  0  0
    5.4660   71.2653   69.0102 H   0  0  0  0  0  0  0  0  0  0  0  0
    6.6685   72.4471   68.3479 H   0  0  0  0  0  0  0  0  0  0  0  0
   -0.0294   66.2007   70.3883 H   0  0  0  0  0  0  0  0  0  0  0  0
    0.4212   65.4737   68.7921 H   0  0  0  0  0  0  0  0  0  0  0  0
    2.7421   65.1387   69.6502 H   0  0  0  0  0  0  0  0  0  0  0  0
    2.1366   65.7271   71.2824 H   0  0  0  0  0  0  0  0  0  0  0  0
    1.1308   64.1163   72.8387 H   0  0  0  0  0  0  0  0  0  0  0  0
    1.5671   62.4246   72.4209 H   0  0  0  0  0  0  0  0  0  0  0  0
    2.8284   63.7036   72.4209 H   0  0  0  0  0  0  0  0  0  0  0  0
   -0.5561   63.4443   71.3917 H   0  0  0  0  0  0  0  0  0  0  0  0
   -0.4015   64.3787   69.8654 H   0  0  0  0  0  0  0  0  0  0  0  0
   -0.1171   62.6051   69.8654 H   0  0  0  0  0  0  0  0  0  0  0  0
    2.8554   62.1133   70.5383 H   0  0  0  0  0  0  0  0  0  0  0  0
    1.6083   62.2102   69.2491 H   0  0  0  0  0  0  0  0  0  0  0  0
    2.9912   63.3567   69.2491 H   0  0  0  0  0  0  0  0  0  0  0  0
  2  1  2  0
  3  1  1  0
  4  3  1  0
  5  4  1  0
  6  5  1  0
  7  6  1  0
  8  7  1  0
 10  9  1  0
 10  8  1  0
 11  1  1  0
 12 11  1  0
 13 12  1  0
 14 13  1  0
 15 14  1  0
 16 14  1  0
 17 14  1  0
  4 18  1  0
  4 19  1  0
  5 20  1  0
  5 21  1  0
  6 22  1  0
  6 23  1  0
  7 24  1  0
  7 25  1  0
  8 26  1  0
  8 27  1  0
  9 28  1  0
  9 29  1  0
  9 30  1  0
 10 31  1  0
 10 32  1  0
 12 33  1  0
 12 34  1  0
 13 35  1  0
 13 36  1  0
 15 37  1  0
 15 38  1  0
 15 39  1  0
 16 40  1  0
 16 41  1  0
 16 42  1  0
 17 43  1  0
 17 44  1  0
 17 45  1  0
M  CHG  1  14   1
M  END
>  <score>  (4) 
-5.729

$$$$
=
     RDKit          3D

 45 44  0  0  0  0  0  0  0  0999 V2000
    3.4710   70.2750   68.5480 C   0  0  0  0  0  0  0  0  0  0  0  0
    3.4420   70.4760   69.7570 O   0  0  0  0  0  0  0  0  0  0  0  0
    4.9910   70.1990   67.6860 S   0  0  0  0  0  0  0  0  0  0  0  0
    4.4310   69.5240   66.0970 C   0  0  0  0  0  0  0  0  0  0  0  0
    5.4830   69.7810   65.0190 C   0  0  0  0  0  0  0  0  0  0  0  0
    5.0350   69.2020   63.6730 C   0  0  0  0  0  0  0  0  0  0  0  0
    3.5430   68.8570   63.6240 C   0  0  0  0  0  0  0  0  0  0  0  0
    3.2670   67.3560   63.5220 C   0  0  0  0  0  0  0  0  0  0  0  0
    4.3710   65.0970   63.7030 C   0  0  0  0  0  0  0  0  0  0  0  0
    4.5660   66.5650   63.3580 C   0  0  0  0  0  0  0  0  0  0  0  0
    2.3290   70.1610   67.8050 O   0  0  0  0  0  0  0  0  0  0  0  0
    1.5230   69.0110   68.1220 C   0  0  0  0  0  0  0  0  0  0  0  0
    0.0510   69.2280   67.7240 C   0  0  0  0  0  0  0  0  0  0  0  0
   -0.5630   68.0980   66.8690 N   0  0  0  0  0  4  0  0  0  0  0  0
   -1.2010   67.0200   67.7330 C   0  0  0  0  0  0  0  0  0  0  0  0
   -1.5950   68.6620   65.8880 C   0  0  0  0  0  0  0  0  0  0  0  0
    0.5630   67.4630   66.0490 C   0  0  0  0  0  0  0  0  0  0  0  0
    4.2704   68.4405   66.1980 H   0  0  0  0  0  0  0  0  0  0  0  0
    3.4905   70.0157   65.8076 H   0  0  0  0  0  0  0  0  0  0  0  0
    5.6334   70.8655   64.9130 H   0  0  0  0  0  0  0  0  0  0  0  0
    6.4217   69.2919   65.3185 H   0  0  0  0  0  0  0  0  0  0  0  0
    5.2475   69.9419   62.8873 H   0  0  0  0  0  0  0  0  0  0  0  0
    5.5897   68.2641   63.5228 H   0  0  0  0  0  0  0  0  0  0  0  0
    3.0675   69.2370   64.5402 H   0  0  0  0  0  0  0  0  0  0  0  0
    3.1325   69.3239   62.7165 H   0  0  0  0  0  0  0  0  0  0  0  0
    2.7565   67.0220   64.4373 H   0  0  0  0  0  0  0  0  0  0  0  0
    2.6361   67.1769   62.6389 H   0  0  0  0  0  0  0  0  0  0  0  0
    4.3550   64.9763   64.7962 H   0  0  0  0  0  0  0  0  0  0  0  0
    3.4182   64.7446   63.2812 H   0  0  0  0  0  0  0  0  0  0  0  0
    5.1988   64.5081   63.2812 H   0  0  0  0  0  0  0  0  0  0  0  0
    5.3304   66.9905   64.0248 H   0  0  0  0  0  0  0  0  0  0  0  0
    4.8819   66.6338   62.3066 H   0  0  0  0  0  0  0  0  0  0  0  0
    1.9154   68.1385   67.5791 H   0  0  0  0  0  0  0  0  0  0  0  0
    1.5667   68.8472   69.2089 H   0  0  0  0  0  0  0  0  0  0  0  0
   -0.5424   69.3206   68.6456 H   0  0  0  0  0  0  0  0  0  0  0  0
    0.0296   70.1340   67.1006 H   0  0  0  0  0  0  0  0  0  0  0  0
   -1.0548   67.2670   68.7949 H   0  0  0  0  0  0  0  0  0  0  0  0
   -2.2776   66.9643   67.5143 H   0  0  0  0  0  0  0  0  0  0  0  0
   -0.7318   66.0494   67.5143 H   0  0  0  0  0  0  0  0  0  0  0  0
   -2.4250   69.1156   66.4495 H   0  0  0  0  0  0  0  0  0  0  0  0
   -1.1199   69.4259   65.2549 H   0  0  0  0  0  0  0  0  0  0  0  0
   -1.9813   67.8496   65.2549 H   0  0  0  0  0  0  0  0  0  0  0  0
    1.3166   67.0380   66.7284 H   0  0  0  0  0  0  0  0  0  0  0  0
    0.1496   66.6650   65.4147 H   0  0  0  0  0  0  0  0  0  0  0  0
    1.0319   68.2297   65.4147 H   0  0  0  0  0  0  0  0  0  0  0  0
  2  1  2  0
  3  1  1  0
  4  3  1  0
  5  4  1  0
  6  5  1  0
  7  6  1  0
  8  7  1  0
 10  9  1  0
 10  8  1  0
 11  1  1  0
 12 11  1  0
 13 12  1  0
 14 13  1  0
 15 14  1  0
 16 14  1  0
 17 14  1  0
  4 18  1  0
  4 19  1  0
  5 20  1  0
  5 21  1  0
  6 22  1  0
  6 23  1  0
  7 24  1  0
  7 25  1  0
  8 26  1  0
  8 27  1  0
  9 28  1  0
  9 29  1  0
  9 30  1  0
 10 31  1  0
 10 32  1  0
 12 33  1  0
 12 34  1  0
 13 35  1  0
 13 36  1  0
 15 37  1  0
 15 38  1  0
 15 39  1  0
 16 40  1  0
 16 41  1  0
 16 42  1  0
 17 43  1  0
 17 44  1  0
 17 45  1  0
M  CHG  1  14   1
M  END
>  <score>  (5) 
-5.655

$$$$
=
     RDKit          3D

 45 44  0  0  0  0  0  0  0  0999 V2000
    0.9280   67.6110   66.4790 C   0  0  0  0  0  0  0  0  0  0  0  0
    0.7530   66.6310   65.7640 O   0  0  0  0  0  0  0  0  0  0  0  0
    0.0360   67.8030   67.9720 S   0  0  0  0  0  0  0  0  0  0  0  0
    1.1340   66.9250   69.1210 C   0  0  0  0  0  0  0  0  0  0  0  0
    0.3130   66.2660   70.2290 C   0  0  0  0  0  0  0  0  0  0  0  0
    0.8070   64.8410   70.4980 C   0  0  0  0  0  0  0  0  0  0  0  0
    2.3240   64.6840   70.3470 C   0  0  0  0  0  0  0  0  0  0  0  0
    2.8750   63.4230   71.0140 C   0  0  0  0  0  0  0  0  0  0  0  0
    3.7550   62.8010   68.7350 C   0  0  0  0  0  0  0  0  0  0  0  0
    4.0530   62.8490   70.2250 C   0  0  0  0  0  0  0  0  0  0  0  0
    1.7740   68.6250   66.1250 O   0  0  0  0  0  0  0  0  0  0  0  0
    1.9990   68.7460   64.7080 C   0  0  0  0  0  0  0  0  0  0  0  0
    3.4950   68.9310   64.3900 C   0  0  0  0  0  0  0  0  0  0  0  0
    3.9720   68.2400   63.0940 N   0  0  0  0  0  4  0  0  0  0  0  0
    4.1060   66.7350   63.2720 C   0  0  0  0  0  0  0  0  0  0  0  0
    3.0180   68.5480   61.9350 C   0  0  0  0  0  0  0  0  0  0  0  0
    5.3460   68.8130   62.7330 C   0  0  0  0  0  0  0  0  0  0  0  0
    1.6921   66.1520   68.5724 H   0  0  0  0  0  0  0  0  0  0  0  0
    1.8352   67.6437   69.5703 H   0  0  0  0  0  0  0  0  0  0  0  0
    0.4074   66.8603   71.1498 H   0  0  0  0  0  0  0  0  0  0  0  0
   -0.7384   66.2201   69.9090 H   0  0  0  0  0  0  0  0  0  0  0  0
    0.5283   64.5634   71.5253 H   0  0  0  0  0  0  0  0  0  0  0  0
    0.3367   64.1874   69.7486 H   0  0  0  0  0  0  0  0  0  0  0  0
    2.5651   64.6446   69.2745 H   0  0  0  0  0  0  0  0  0  0  0  0
    2.7903   65.5455   70.8474 H   0  0  0  0  0  0  0  0  0  0  0  0
    3.2121   63.6731   72.0308 H   0  0  0  0  0  0  0  0  0  0  0  0
    2.0757   62.6679   71.0448 H   0  0  0  0  0  0  0  0  0  0  0  0
    2.6796   62.6278   68.5815 H   0  0  0  0  0  0  0  0  0  0  0  0
    4.0421   63.7570   68.2727 H   0  0  0  0  0  0  0  0  0  0  0  0
    4.3277   61.9835   68.2727 H   0  0  0  0  0  0  0  0  0  0  0  0
    4.2588   61.8289   70.5814 H   0  0  0  0  0  0  0  0  0  0  0  0
    4.9243   63.5018   70.3819 H   0  0  0  0  0  0  0  0  0  0  0  0
    1.6371   67.8349   64.2091 H   0  0  0  0  0  0  0  0  0  0  0  0
    1.4561   69.6314   64.3457 H   0  0  0  0  0  0  0  0  0  0  0  0
    3.6942   70.0088   64.2964 H   0  0  0  0  0  0  0  0  0  0  0  0
    4.0477   68.4574   65.2148 H   0  0  0  0  0  0  0  0  0  0  0  0
    4.1275   66.4931   64.3449 H   0  0  0  0  0  0  0  0  0  0  0  0
    3.2491   66.2322   62.7999 H   0  0  0  0  0  0  0  0  0  0  0  0
    5.0383   66.3915   62.7999 H   0  0  0  0  0  0  0  0  0  0  0  0
    2.0433   68.8627   62.3361 H   0  0  0  0  0  0  0  0  0  0  0  0
    3.4389   69.3559   61.3184 H   0  0  0  0  0  0  0  0  0  0  0  0
    2.8870   67.6465   61.3184 H   0  0  0  0  0  0  0  0  0  0  0  0
    5.9005   69.0442   63.6545 H   0  0  0  0  0  0  0  0  0  0  0  0
    5.9078   68.0742   62.1426 H   0  0  0  0  0  0  0  0  0  0  0  0
    5.2164   69.7321   62.1426 H   0  0  0  0  0  0  0  0  0  0  0  0
  2  1  2  0
  3  1  1  0
  4  3  1  0
  5  4  1  0
  6  5  1  0
  7  6  1  0
  8  7  1  0
 10  9  1  0
 10  8  1  0
 11  1  1  0
 12 11  1  0
 13 12  1  0
 14 13  1  0
 15 14  1  0
 16 14  1  0
 17 14  1  0
  4 18  1  0
  4 19  1  0
  5 20  1  0
  5 21  1  0
  6 22  1  0
  6 23  1  0
  7 24  1  0
  7 25  1  0
  8 26  1  0
  8 27  1  0
  9 28  1  0
  9 29  1  0
  9 30  1  0
 10 31  1  0
 10 32  1  0
 12 33  1  0
 12 34  1  0
 13 35  1  0
 13 36  1  0
 15 37  1  0
 15 38  1  0
 15 39  1  0
 16 40  1  0
 16 41  1  0
 16 42  1  0
 17 43  1  0
 17 44  1  0
 17 45  1  0
M  CHG  1  14   1
M  END
>  <score>  (6) 
-5.641

$$$$
=
     RDKit          3D

 45 44  0  0  0  0  0  0  0  0999 V2000
    0.8590   64.6430   70.4340 C   0  0  0  0  0  0  0  0  0  0  0  0
    0.3270   63.8670   71.2200 O   0  0  0  0  0  0  0  0  0  0  0  0
    0.0540   66.1170   69.9440 S   0  0  0  0  0  0  0  0  0  0  0  0
    1.4820   67.1090   69.4230 C   0  0  0  0  0  0  0  0  0  0  0  0
    1.1150   67.9530   68.2020 C   0  0  0  0  0  0  0  0  0  0  0  0
    2.0600   69.1510   68.0660 C   0  0  0  0  0  0  0  0  0  0  0  0
    2.7140   69.2570   66.6850 C   0  0  0  0  0  0  0  0  0  0  0  0
    4.2040   69.5960   66.7400 C   0  0  0  0  0  0  0  0  0  0  0  0
    6.0490   70.5270   68.1840 C   0  0  0  0  0  0  0  0  0  0  0  0
    4.5460   70.3800   68.0080 C   0  0  0  0  0  0  0  0  0  0  0  0
    2.0690   64.3740   69.8570 O   0  0  0  0  0  0  0  0  0  0  0  0
    3.0550   63.8410   70.7600 C   0  0  0  0  0  0  0  0  0  0  0  0
    4.0280   62.8930   70.0350 C   0  0  0  0  0  0  0  0  0  0  0  0
    4.0850   61.4590   70.6060 N   0  0  0  0  0  4  0  0  0  0  0  0
    4.0020   60.4100   69.5080 C   0  0  0  0  0  0  0  0  0  0  0  0
    5.3610   61.2570   71.4300 C   0  0  0  0  0  0  0  0  0  0  0  0
    2.8890   61.2780   71.5450 C   0  0  0  0  0  0  0  0  0  0  0  0
    1.7847   67.7723   70.2466 H   0  0  0  0  0  0  0  0  0  0  0  0
    2.3123   66.4368   69.1609 H   0  0  0  0  0  0  0  0  0  0  0  0
    1.1888   67.3308   67.2979 H   0  0  0  0  0  0  0  0  0  0  0  0
    0.0877   68.3261   68.3267 H   0  0  0  0  0  0  0  0  0  0  0  0
    1.4857   70.0707   68.2512 H   0  0  0  0  0  0  0  0  0  0  0  0
    2.8689   69.0109   68.7982 H   0  0  0  0  0  0  0  0  0  0  0  0
    2.5951   68.2931   66.1686 H   0  0  0  0  0  0  0  0  0  0  0  0
    2.2144   70.0799   66.1528 H   0  0  0  0  0  0  0  0  0  0  0  0
    4.7852   68.6622   66.7277 H   0  0  0  0  0  0  0  0  0  0  0  0
    4.4522   70.2186   65.8678 H   0  0  0  0  0  0  0  0  0  0  0  0
    6.2920   70.5508   69.2566 H   0  0  0  0  0  0  0  0  0  0  0  0
    6.5586   69.6744   67.7114 H   0  0  0  0  0  0  0  0  0  0  0  0
    6.3838   71.4622   67.7114 H   0  0  0  0  0  0  0  0  0  0  0  0
    4.1345   69.8485   68.8787 H   0  0  0  0  0  0  0  0  0  0  0  0
    4.1088   71.3856   67.9204 H   0  0  0  0  0  0  0  0  0  0  0  0
    3.6259   64.6730   71.1980 H   0  0  0  0  0  0  0  0  0  0  0  0
    2.5343   63.2697   71.5426 H   0  0  0  0  0  0  0  0  0  0  0  0
    3.7210   62.8291   68.9807 H   0  0  0  0  0  0  0  0  0  0  0  0
    5.0329   63.3194   70.1706 H   0  0  0  0  0  0  0  0  0  0  0  0
    3.9229   59.4107   69.9609 H   0  0  0  0  0  0  0  0  0  0  0  0
    3.1162   60.6011   68.8845 H   0  0  0  0  0  0  0  0  0  0  0  0
    4.9069   60.4595   68.8845 H   0  0  0  0  0  0  0  0  0  0  0  0
    5.1155   61.2959   72.5015 H   0  0  0  0  0  0  0  0  0  0  0  0
    5.8013   60.2780   71.1900 H   0  0  0  0  0  0  0  0  0  0  0  0
    6.0822   62.0522   71.1900 H   0  0  0  0  0  0  0  0  0  0  0  0
    3.2314   61.3298   72.5891 H   0  0  0  0  0  0  0  0  0  0  0  0
    2.1538   62.0751   71.3602 H   0  0  0  0  0  0  0  0  0  0  0  0
    2.4226   60.2990   71.3602 H   0  0  0  0  0  0  0  0  0  0  0  0
  2  1  2  0
  3  1  1  0
  4  3  1  0
  5  4  1  0
  6  5  1  0
  7  6  1  0
  8  7  1  0
 10  9  1  0
 10  8  1  0
 11  1  1  0
 12 11  1  0
 13 12  1  0
 14 13  1  0
 15 14  1  0
 16 14  1  0
 17 14  1  0
  4 18  1  0
  4 19  1  0
  5 20  1  0
  5 21  1  0
  6 22  1  0
  6 23  1  0
  7 24  1  0
  7 25  1  0
  8 26  1  0
  8 27  1  0
  9 28  1  0
  9 29  1  0
  9 30  1  0
 10 31  1  0
 10 32  1  0
 12 33  1  0
 12 34  1  0
 13 35  1  0
 13 36  1  0
 15 37  1  0
 15 38  1  0
 15 39  1  0
 16 40  1  0
 16 41  1  0
 16 42  1  0
 17 43  1  0
 17 44  1  0
 17 45  1  0
M  CHG  1  14   1
M  END
>  <score>  (7) 
-5.519

$$$$
=
     RDKit          3D

 45 44  0  0  0  0  0  0  0  0999 V2000
    0.9710   68.4400   67.7930 C   0  0  0  0  0  0  0  0  0  0  0  0
    2.0020   68.8060   68.3470 O   0  0  0  0  0  0  0  0  0  0  0  0
    0.0760   67.0590   68.3870 S   0  0  0  0  0  0  0  0  0  0  0  0
    1.1040   66.5940   69.8090 C   0  0  0  0  0  0  0  0  0  0  0  0
    0.2850   65.7650   70.7990 C   0  0  0  0  0  0  0  0  0  0  0  0
    0.9290   64.3930   71.0230 C   0  0  0  0  0  0  0  0  0  0  0  0
    2.2650   64.2200   70.2930 C   0  0  0  0  0  0  0  0  0  0  0  0
    2.5790   62.7680   69.9330 C   0  0  0  0  0  0  0  0  0  0  0  0
    4.9600   63.3910   70.4800 C   0  0  0  0  0  0  0  0  0  0  0  0
    4.0510   62.5980   69.5540 C   0  0  0  0  0  0  0  0  0  0  0  0
    0.5030   69.0440   66.6600 O   0  0  0  0  0  0  0  0  0  0  0  0
    0.3870   68.1700   65.5220 C   0  0  0  0  0  0  0  0  0  0  0  0
    1.2410   68.6690   64.3410 C   0  0  0  0  0  0  0  0  0  0  0  0
    2.6810   68.1150   64.3030 N   0  0  0  0  0  4  0  0  0  0  0  0
    3.1940   67.9720   62.8780 C   0  0  0  0  0  0  0  0  0  0  0  0
    3.6260   69.0090   65.1120 C   0  0  0  0  0  0  0  0  0  0  0  0
    2.6720   66.7310   64.9590 C   0  0  0  0  0  0  0  0  0  0  0  0
    1.9619   66.0007   69.4596 H   0  0  0  0  0  0  0  0  0  0  0  0
    1.4599   67.5061   70.3103 H   0  0  0  0  0  0  0  0  0  0  0  0
    0.2313   66.2993   71.7590 H   0  0  0  0  0  0  0  0  0  0  0  0
   -0.7238   65.6178   70.3859 H   0  0  0  0  0  0  0  0  0  0  0  0
    1.1015   64.2609   72.1013 H   0  0  0  0  0  0  0  0  0  0  0  0
    0.2376   63.6401   70.6166 H   0  0  0  0  0  0  0  0  0  0  0  0
    2.2338   64.8099   69.3651 H   0  0  0  0  0  0  0  0  0  0  0  0
    3.0549   64.5618   70.9780 H   0  0  0  0  0  0  0  0  0  0  0  0
    2.3551   62.1272   70.7986 H   0  0  0  0  0  0  0  0  0  0  0  0
    1.9615   62.4821   69.0687 H   0  0  0  0  0  0  0  0  0  0  0  0
    4.7033   63.1671   71.5259 H   0  0  0  0  0  0  0  0  0  0  0  0
    6.0075   63.1130   70.2919 H   0  0  0  0  0  0  0  0  0  0  0  0
    4.8267   64.4666   70.2919 H   0  0  0  0  0  0  0  0  0  0  0  0
    4.1973   62.9498   68.5221 H   0  0  0  0  0  0  0  0  0  0  0  0
    4.3101   61.5328   69.6450 H   0  0  0  0  0  0  0  0  0  0  0  0
    0.7252   67.1631   65.8080 H   0  0  0  0  0  0  0  0  0  0  0  0
   -0.6661   68.1524   65.2048 H   0  0  0  0  0  0  0  0  0  0  0  0
    0.7375   68.3773   63.4075 H   0  0  0  0  0  0  0  0  0  0  0  0
    1.3318   69.7584   64.4635 H   0  0  0  0  0  0  0  0  0  0  0  0
    4.2534   67.6767   62.8976 H   0  0  0  0  0  0  0  0  0  0  0  0
    2.6086   67.2028   62.3530 H   0  0  0  0  0  0  0  0  0  0  0  0
    3.0909   68.9331   62.3530 H   0  0  0  0  0  0  0  0  0  0  0  0
    3.4543   68.8466   66.1863 H   0  0  0  0  0  0  0  0  0  0  0  0
    4.6684   68.7587   64.8653 H   0  0  0  0  0  0  0  0  0  0  0  0
    3.4339   70.0636   64.8653 H   0  0  0  0  0  0  0  0  0  0  0  0
    2.6727   66.8439   66.0532 H   0  0  0  0  0  0  0  0  0  0  0  0
    1.7703   66.1834   64.6475 H   0  0  0  0  0  0  0  0  0  0  0  0
    3.5665   66.1717   64.6475 H   0  0  0  0  0  0  0  0  0  0  0  0
  2  1  2  0
  3  1  1  0
  4  3  1  0
  5  4  1  0
  6  5  1  0
  7  6  1  0
  8  7  1  0
 10  9  1  0
 10  8  1  0
 11  1  1  0
 12 11  1  0
 13 12  1  0
 14 13  1  0
 15 14  1  0
 16 14  1  0
 17 14  1  0
  4 18  1  0
  4 19  1  0
  5 20  1  0
  5 21  1  0
  6 22  1  0
  6 23  1  0
  7 24  1  0
  7 25  1  0
  8 26  1  0
  8 27  1  0
  9 28  1  0
  9 29  1  0
  9 30  1  0
 10 31  1  0
 10 32  1  0
 12 33  1  0
 12 34  1  0
 13 35  1  0
 13 36  1  0
 15 37  1  0
 15 38  1  0
 15 39  1  0
 16 40  1  0
 16 41  1  0
 16 42  1  0
 17 43  1  0
 17 44  1  0
 17 45  1  0
M  CHG  1  14   1
M  END
>  <score>  (8) 
-5.339

$$$$
=
     RDKit          3D

 45 44  0  0  0  0  0  0  0  0999 V2000
    4.3650   70.0410   67.7480 C   0  0  0  0  0  0  0  0  0  0  0  0
    4.4410   70.3850   68.9220 O   0  0  0  0  0  0  0  0  0  0  0  0
    5.7870   70.0000   66.7300 S   0  0  0  0  0  0  0  0  0  0  0  0
    5.0170   69.7290   65.1080 C   0  0  0  0  0  0  0  0  0  0  0  0
    5.5130   68.4140   64.5070 C   0  0  0  0  0  0  0  0  0  0  0  0
    4.3390   67.4750   64.2110 C   0  0  0  0  0  0  0  0  0  0  0  0
    3.1120   68.1940   63.6430 C   0  0  0  0  0  0  0  0  0  0  0  0
    3.1860   68.4270   62.1330 C   0  0  0  0  0  0  0  0  0  0  0  0
    0.7760   68.9600   62.6400 C   0  0  0  0  0  0  0  0  0  0  0  0
    1.8830   69.0230   61.6000 C   0  0  0  0  0  0  0  0  0  0  0  0
    3.1690   69.7330   67.1590 O   0  0  0  0  0  0  0  0  0  0  0  0
    2.0510   69.6940   68.0650 C   0  0  0  0  0  0  0  0  0  0  0  0
    1.4880   68.2670   68.2020 C   0  0  0  0  0  0  0  0  0  0  0  0
    0.1880   68.0050   67.4110 N   0  0  0  0  0  4  0  0  0  0  0  0
   -0.6320   69.2750   67.2350 C   0  0  0  0  0  0  0  0  0  0  0  0
    0.5010   67.3890   66.0440 C   0  0  0  0  0  0  0  0  0  0  0  0
   -0.6480   66.9920   68.1990 C   0  0  0  0  0  0  0  0  0  0  0  0
    3.9242   69.6863   65.2261 H   0  0  0  0  0  0  0  0  0  0  0  0
    5.2876   70.5575   64.4369 H   0  0  0  0  0  0  0  0  0  0  0  0
    6.0509   68.6253   63.5710 H   0  0  0  0  0  0  0  0  0  0  0  0
    6.1820   67.9254   65.2306 H   0  0  0  0  0  0  0  0  0  0  0  0
    4.6706   66.7219   63.4810 H   0  0  0  0  0  0  0  0  0  0  0  0
    4.0363   67.0230   65.1671 H   0  0  0  0  0  0  0  0  0  0  0  0
    2.2213   67.5855   63.8582 H   0  0  0  0  0  0  0  0  0  0  0  0
    3.0667   69.1836   64.1212 H   0  0  0  0  0  0  0  0  0  0  0  0
    4.0122   69.1204   61.9172 H   0  0  0  0  0  0  0  0  0  0  0  0
    3.3530   67.4583   61.6393 H   0  0  0  0  0  0  0  0  0  0  0  0
    1.2173   68.9851   63.6473 H   0  0  0  0  0  0  0  0  0  0  0  0
    0.1038   69.8213   62.5126 H   0  0  0  0  0  0  0  0  0  0  0  0
    0.2059   68.0280   62.5126 H   0  0  0  0  0  0  0  0  0  0  0  0
    1.5695   68.4585   60.7095 H   0  0  0  0  0  0  0  0  0  0  0  0
    2.0628   70.0791   61.3504 H   0  0  0  0  0  0  0  0  0  0  0  0
    2.3796   70.0456   69.0542 H   0  0  0  0  0  0  0  0  0  0  0  0
    1.2578   70.3420   67.6640 H   0  0  0  0  0  0  0  0  0  0  0  0
    2.2533   67.5616   67.8459 H   0  0  0  0  0  0  0  0  0  0  0  0
    1.2360   68.1342   69.2645 H   0  0  0  0  0  0  0  0  0  0  0  0
   -0.8946   69.6817   68.2227 H   0  0  0  0  0  0  0  0  0  0  0  0
   -0.0425   70.0178   66.6775 H   0  0  0  0  0  0  0  0  0  0  0  0
   -1.5516   69.0434   66.6775 H   0  0  0  0  0  0  0  0  0  0  0  0
    0.9952   66.4164   66.1846 H   0  0  0  0  0  0  0  0  0  0  0  0
   -0.4344   67.2473   65.4828 H   0  0  0  0  0  0  0  0  0  0  0  0
    1.1670   68.0610   65.4828 H   0  0  0  0  0  0  0  0  0  0  0  0
   -0.5085   67.1610   69.2770 H   0  0  0  0  0  0  0  0  0  0  0  0
   -1.7106   67.1154   67.9430 H   0  0  0  0  0  0  0  0  0  0  0  0
   -0.3252   65.9721   67.9430 H   0  0  0  0  0  0  0  0  0  0  0  0
  2  1  2  0
  3  1  1  0
  4  3  1  0
  5  4  1  0
  6  5  1  0
  7  6  1  0
  8  7  1  0
 10  9  1  0
 10  8  1  0
 11  1  1  0
 12 11  1  0
 13 12  1  0
 14 13  1  0
 15 14  1  0
 16 14  1  0
 17 14  1  0
  4 18  1  0
  4 19  1  0
  5 20  1  0
  5 21  1  0
  6 22  1  0
  6 23  1  0
  7 24  1  0
  7 25  1  0
  8 26  1  0
  8 27  1  0
  9 28  1  0
  9 29  1  0
  9 30  1  0
 10 31  1  0
 10 32  1  0
 12 33  1  0
 12 34  1  0
 13 35  1  0
 13 36  1  0
 15 37  1  0
 15 38  1  0
 15 39  1  0
 16 40  1  0
 16 41  1  0
 16 42  1  0
 17 43  1  0
 17 44  1  0
 17 45  1  0
M  CHG  1  14   1
M  END
>  <score>  (9) 
-5.335

$$$$
