=
     RDKit          3D

 47 50  0  0  0  0  0  0  0  0999 V2000
    3.2350   66.9560   63.7210 C   0  0  1  0  0  0  0  0  0  0  0  0
    3.5500   66.5300   65.0380 O   0  0  0  0  0  0  0  0  0  0  0  0
    2.8710   67.3060   66.0290 C   0  0  2  0  0  0  0  0  0  0  0  0
    1.5340   66.8320   66.1730 O   0  0  0  0  0  0  0  0  0  0  0  0
    0.5950   67.8180   66.6000 C   0  0  1  0  0  0  0  0  0  0  0  0
   -0.7830   67.1690   66.4780 C   0  0  0  0  0  0  0  0  0  0  0  0
    0.8300   68.2730   68.0340 C   0  0  0  0  0  0  0  0  0  0  0  0
    2.1670   68.9710   68.2890 C   0  0  0  0  0  0  0  0  0  0  0  0
    2.9490   69.6390   67.1080 C   0  0  2  0  0  0  0  0  0  0  0  0
    2.9060   68.8300   65.7610 C   0  0  1  0  0  0  0  0  0  0  0  0
    4.0250   69.2000   64.7490 C   0  0  2  0  0  0  0  0  0  0  0  0
    3.9330   68.3130   63.4540 C   0  0  1  0  0  0  0  0  0  0  0  0
    5.2690   68.1740   62.7140 C   0  0  0  0  0  0  0  0  0  0  0  0
    5.3990   69.2350   65.4160 C   0  0  0  0  0  0  0  0  0  0  0  0
    5.3930   70.2660   66.5320 C   0  0  0  0  0  0  0  0  0  0  0  0
    4.4050   69.8870   67.6300 C   0  0  1  0  0  0  0  0  0  0  0  0
    4.4520   70.9610   68.7270 C   0  0  0  0  0  0  0  0  0  0  0  0
    1.7110   69.1400   64.9940 O   0  0  0  0  0  0  0  0  0  0  0  0
    0.5410   69.0300   65.8380 O   0  0  0  0  0  0  0  0  0  0  0  0
    4.2210   64.8210   63.4500 C   0  0  0  0  0  0  0  0  0  0  0  0
    3.6550   65.9510   62.8010 O   0  0  0  0  0  0  0  0  0  0  0  0
    2.1515   67.1006   63.5976 H   0  0  0  0  0  0  0  0  0  0  0  0
    3.4155   67.1705   66.9751 H   0  0  0  0  0  0  0  0  0  0  0  0
   -1.1886   66.9780   67.4825 H   0  0  0  0  0  0  0  0  0  0  0  0
   -1.4589   67.8434   65.9318 H   0  0  0  0  0  0  0  0  0  0  0  0
   -0.6935   66.2184   65.9318 H   0  0  0  0  0  0  0  0  0  0  0  0
    0.0250   68.9720   68.3047 H   0  0  0  0  0  0  0  0  0  0  0  0
    0.8440   67.3580   68.6444 H   0  0  0  0  0  0  0  0  0  0  0  0
    1.9741   69.7627   69.0279 H   0  0  0  0  0  0  0  0  0  0  0  0
    2.8269   68.1432   68.5879 H   0  0  0  0  0  0  0  0  0  0  0  0
    2.4622   70.5853   66.8295 H   0  0  0  0  0  0  0  0  0  0  0  0
    3.8656   70.2307   64.3993 H   0  0  0  0  0  0  0  0  0  0  0  0
    3.2819   68.8600   62.7562 H   0  0  0  0  0  0  0  0  0  0  0  0
    6.0862   68.0890   63.4454 H   0  0  0  0  0  0  0  0  0  0  0  0
    5.2466   67.2733   62.0829 H   0  0  0  0  0  0  0  0  0  0  0  0
    5.4325   69.0600   62.0829 H   0  0  0  0  0  0  0  0  0  0  0  0
    5.6295   68.2438   65.8335 H   0  0  0  0  0  0  0  0  0  0  0  0
    6.1619   69.5049   64.6710 H   0  0  0  0  0  0  0  0  0  0  0  0
    6.4021   70.3316   66.9648 H   0  0  0  0  0  0  0  0  0  0  0  0
    5.0877   71.2344   66.1089 H   0  0  0  0  0  0  0  0  0  0  0  0
    4.7134   68.9168   68.0467 H   0  0  0  0  0  0  0  0  0  0  0  0
    4.4308   70.4774   69.7148 H   0  0  0  0  0  0  0  0  0  0  0  0
    5.3767   71.5481   68.6259 H   0  0  0  0  0  0  0  0  0  0  0  0
    3.5821   71.6267   68.6259 H   0  0  0  0  0  0  0  0  0  0  0  0
    4.1549   64.9530   64.5401 H   0  0  0  0  0  0  0  0  0  0  0  0
    3.6701   63.9153   63.1562 H   0  0  0  0  0  0  0  0  0  0  0  0
    5.2762   64.7198   63.1562 H   0  0  0  0  0  0  0  0  0  0  0  0
  2  1  1  0
  3  2  1  0
  4  3  1  0
  5  4  1  0
  5  6  1  1
  7  5  1  0
  8  7  1  0
  9  8  1  0
 10  9  1  0
 10  3  1  0
 11 10  1  0
 12 11  1  0
 12  1  1  0
 13 12  1  0
 14 11  1  0
 15 14  1  0
 16 15  1  0
 16  9  1  0
 17 16  1  0
 10 18  1  6
 19 18  1  0
 19  5  1  0
 21 20  1  0
 21  1  1  0
  1 22  1  1
  3 23  1  1
  6 24  1  0
  6 25  1  0
  6 26  1  0
  7 27  1  0
  7 28  1  0
  8 29  1  0
  8 30  1  0
  9 31  1  6
 11 32  1  6
 12 33  1  6
 13 34  1  0
 13 35  1  0
 13 36  1  0
 14 37  1  0
 14 38  1  0
 15 39  1  0
 15 40  1  0
 16 41  1  1
 17 42  1  0
 17 43  1  0
 17 44  1  0
 20 45  1  0
 20 46  1  0
 20 47  1  0
M  END
>  <score>  (1) 
-9.617

$$$$
=
     RDKit          3D

 47 50  0  0  0  0  0  0  0  0999 V2000
    0.6930   68.1910   64.6160 C   0  0  1  0  0  0  0  0  0  0  0  0
    1.3550   69.4010   64.2830 O   0  0  0  0  0  0  0  0  0  0  0  0
    2.7740   69.2370   64.2250 C   0  0  2  0  0  0  0  0  0  0  0  0
    3.1380   68.6690   62.9690 O   0  0  0  0  0  0  0  0  0  0  0  0
    4.3350   67.8930   62.9890 C   0  0  1  0  0  0  0  0  0  0  0  0
    4.4190   67.2100   61.6240 C   0  0  0  0  0  0  0  0  0  0  0  0
    5.5810   68.7370   63.2240 C   0  0  0  0  0  0  0  0  0  0  0  0
    5.6400   69.4550   64.5740 C   0  0  0  0  0  0  0  0  0  0  0  0
    4.7960   68.9320   65.7860 C   0  0  2  0  0  0  0  0  0  0  0  0
    3.3580   68.4220   65.4040 C   0  0  1  0  0  0  0  0  0  0  0  0
    2.3600   68.3550   66.5930 C   0  0  2  0  0  0  0  0  0  0  0  0
    0.9410   67.8790   66.1130 C   0  0  1  0  0  0  0  0  0  0  0  0
   -0.1990   68.3460   67.0280 C   0  0  0  0  0  0  0  0  0  0  0  0
    2.3710   69.6450   67.4120 C   0  0  0  0  0  0  0  0  0  0  0  0
    3.7680   69.8820   67.9630 C   0  0  0  0  0  0  0  0  0  0  0  0
    4.7770   70.0910   66.8390 C   0  0  1  0  0  0  0  0  0  0  0  0
    6.1610   70.3330   67.4600 C   0  0  0  0  0  0  0  0  0  0  0  0
    3.3860   67.0360   64.9730 O   0  0  0  0  0  0  0  0  0  0  0  0
    4.4110   66.8500   63.9690 O   0  0  0  0  0  0  0  0  0  0  0  0
   -0.9290   69.0710   63.1330 C   0  0  0  0  0  0  0  0  0  0  0  0
   -0.6960   68.3320   64.3240 O   0  0  0  0  0  0  0  0  0  0  0  0
    1.0825   67.3492   64.0247 H   0  0  0  0  0  0  0  0  0  0  0  0
    3.2188   70.2384   64.3221 H   0  0  0  0  0  0  0  0  0  0  0  0
    4.5522   66.1270   61.7635 H   0  0  0  0  0  0  0  0  0  0  0  0
    3.4912   67.3961   61.0632 H   0  0  0  0  0  0  0  0  0  0  0  0
    5.2741   67.6154   61.0632 H   0  0  0  0  0  0  0  0  0  0  0  0
    6.4575   68.0762   63.1520 H   0  0  0  0  0  0  0  0  0  0  0  0
    5.5610   69.5279   62.4597 H   0  0  0  0  0  0  0  0  0  0  0  0
    6.6926   69.4420   64.8930 H   0  0  0  0  0  0  0  0  0  0  0  0
    5.1846   70.4324   64.3565 H   0  0  0  0  0  0  0  0  0  0  0  0
    5.2639   68.0272   66.2012 H   0  0  0  0  0  0  0  0  0  0  0  0
    2.6950   67.5819   67.3002 H   0  0  0  0  0  0  0  0  0  0  0  0
    0.9412   66.7825   66.2007 H   0  0  0  0  0  0  0  0  0  0  0  0
    0.1008   68.2232   68.0792 H   0  0  0  0  0  0  0  0  0  0  0  0
   -0.4170   69.4059   66.8303 H   0  0  0  0  0  0  0  0  0  0  0  0
   -1.0980   67.7437   66.8303 H   0  0  0  0  0  0  0  0  0  0  0  0
    2.0817   70.4899   66.7697 H   0  0  0  0  0  0  0  0  0  0  0  0
    1.6578   69.5573   68.2448 H   0  0  0  0  0  0  0  0  0  0  0  0
    3.7540   70.7763   68.6033 H   0  0  0  0  0  0  0  0  0  0  0  0
    4.0692   68.9956   68.5405 H   0  0  0  0  0  0  0  0  0  0  0  0
    4.4680   70.9755   66.2626 H   0  0  0  0  0  0  0  0  0  0  0  0
    6.0784   70.3185   68.5568 H   0  0  0  0  0  0  0  0  0  0  0  0
    6.8526   69.5422   67.1339 H   0  0  0  0  0  0  0  0  0  0  0  0
    6.5432   71.3116   67.1339 H   0  0  0  0  0  0  0  0  0  0  0  0
   -1.2505   70.0908   63.3912 H   0  0  0  0  0  0  0  0  0  0  0  0
   -0.0018   69.1172   62.5429 H   0  0  0  0  0  0  0  0  0  0  0  0
   -1.7150   68.5771   62.5429 H   0  0  0  0  0  0  0  0  0  0  0  0
  2  1  1  0
  3  2  1  0
  4  3  1  0
  5  4  1  0
  5  6  1  6
  7  5  1  0
  8  7  1  0
  9  8  1  0
 10  9  1  0
 10  3  1  0
 11 10  1  0
 12 11  1  0
 12  1  1  0
 13 12  1  0
 14 11  1  0
 15 14  1  0
 16 15  1  0
 16  9  1  0
 17 16  1  0
 10 18  1  6
 19 18  1  0
 19  5  1  0
 21 20  1  0
 21  1  1  0
  1 22  1  6
  3 23  1  6
  6 24  1  0
  6 25  1  0
  6 26  1  0
  7 27  1  0
  7 28  1  0
  8 29  1  0
  8 30  1  0
  9 31  1  1
 11 32  1  1
 12 33  1  6
 13 34  1  0
 13 35  1  0
 13 36  1  0
 14 37  1  0
 14 38  1  0
 15 39  1  0
 15 40  1  0
 16 41  1  6
 17 42  1  0
 17 43  1  0
 17 44  1  0
 20 45  1  0
 20 46  1  0
 20 47  1  0
M  END
>  <score>  (2) 
-9.421

$$$$
=
     RDKit          3D

 47 50  0  0  0  0  0  0  0  0999 V2000
    4.9170   68.8070   65.7530 C   0  0  1  0  0  0  0  0  0  0  0  0
    3.9560   69.8500   65.8120 O   0  0  0  0  0  0  0  0  0  0  0  0
    2.6220   69.3450   65.9020 C   0  0  2  0  0  0  0  0  0  0  0  0
    2.3390   68.9820   67.2510 O   0  0  0  0  0  0  0  0  0  0  0  0
    1.3760   67.9390   67.3990 C   0  0  1  0  0  0  0  0  0  0  0  0
    1.3860   67.5610   68.8800 C   0  0  0  0  0  0  0  0  0  0  0  0
   -0.0250   68.3670   66.9830 C   0  0  0  0  0  0  0  0  0  0  0  0
   -0.1830   68.7450   65.5080 C   0  0  0  0  0  0  0  0  0  0  0  0
    0.8330   68.2120   64.4420 C   0  0  2  0  0  0  0  0  0  0  0  0
    2.3280   68.1790   64.9280 C   0  0  1  0  0  0  0  0  0  0  0  0
    3.3780   68.1190   63.7850 C   0  0  2  0  0  0  0  0  0  0  0  0
    4.8410   68.1340   64.3600 C   0  0  1  0  0  0  0  0  0  0  0  0
    5.8800   68.6730   63.3670 C   0  0  0  0  0  0  0  0  0  0  0  0
    3.0930   69.1610   62.7040 C   0  0  0  0  0  0  0  0  0  0  0  0
    1.7160   68.9110   62.1110 C   0  0  0  0  0  0  0  0  0  0  0  0
    0.6240   69.0880   63.1610 C   0  0  1  0  0  0  0  0  0  0  0  0
   -0.7390   68.8310   62.4990 C   0  0  0  0  0  0  0  0  0  0  0  0
    2.6220   66.9540   65.6530 O   0  0  0  0  0  0  0  0  0  0  0  0
    1.6190   66.7290   66.6710 O   0  0  0  0  0  0  0  0  0  0  0  0
    6.2240   70.1960   67.1560 C   0  0  0  0  0  0  0  0  0  0  0  0
    6.2080   69.3570   66.0090 O   0  0  0  0  0  0  0  0  0  0  0  0
    4.7163   68.0380   66.5135 H   0  0  0  0  0  0  0  0  0  0  0  0
    1.9478   70.1553   65.5876 H   0  0  0  0  0  0  0  0  0  0  0  0
    1.3618   68.4748   69.4918 H   0  0  0  0  0  0  0  0  0  0  0  0
    0.5039   66.9443   69.1070 H   0  0  0  0  0  0  0  0  0  0  0  0
    2.2995   66.9918   69.1070 H   0  0  0  0  0  0  0  0  0  0  0  0
   -0.7118   67.5346   67.1959 H   0  0  0  0  0  0  0  0  0  0  0  0
   -0.2469   69.2793   67.5561 H   0  0  0  0  0  0  0  0  0  0  0  0
   -1.1790   68.3963   65.1974 H   0  0  0  0  0  0  0  0  0  0  0  0
    0.0010   69.8295   65.5075 H   0  0  0  0  0  0  0  0  0  0  0  0
    0.6295   67.1511   64.2347 H   0  0  0  0  0  0  0  0  0  0  0  0
    3.2879   67.1544   63.2640 H   0  0  0  0  0  0  0  0  0  0  0  0
    5.1188   67.0808   64.5138 H   0  0  0  0  0  0  0  0  0  0  0  0
    6.7237   69.1107   63.9206 H   0  0  0  0  0  0  0  0  0  0  0  0
    6.2440   67.8500   62.7344 H   0  0  0  0  0  0  0  0  0  0  0  0
    5.4168   69.4445   62.7344 H   0  0  0  0  0  0  0  0  0  0  0  0
    3.1244   70.1673   63.1471 H   0  0  0  0  0  0  0  0  0  0  0  0
    3.8528   69.0857   61.9122 H   0  0  0  0  0  0  0  0  0  0  0  0
    1.5438   69.6231   61.2904 H   0  0  0  0  0  0  0  0  0  0  0  0
    1.6787   67.8761   61.7400 H   0  0  0  0  0  0  0  0  0  0  0  0
    0.6700   70.1230   63.5308 H   0  0  0  0  0  0  0  0  0  0  0  0
   -1.5032   68.6869   63.2770 H   0  0  0  0  0  0  0  0  0  0  0  0
   -1.0111   69.6937   61.8731 H   0  0  0  0  0  0  0  0  0  0  0  0
   -0.6783   67.9285   61.8731 H   0  0  0  0  0  0  0  0  0  0  0  0
    6.2122   69.5756   68.0643 H   0  0  0  0  0  0  0  0  0  0  0  0
    7.1341   70.8138   67.1457 H   0  0  0  0  0  0  0  0  0  0  0  0
    5.3381   70.8480   67.1457 H   0  0  0  0  0  0  0  0  0  0  0  0
  2  1  1  0
  3  2  1  0
  4  3  1  0
  5  4  1  0
  5  6  1  1
  7  5  1  0
  8  7  1  0
  9  8  1  0
 10  9  1  0
 10  3  1  0
 11 10  1  0
 12 11  1  0
 12  1  1  0
 13 12  1  0
 14 11  1  0
 15 14  1  0
 16 15  1  0
 16  9  1  0
 17 16  1  0
 10 18  1  1
 19 18  1  0
 19  5  1  0
 21 20  1  0
 21  1  1  0
  1 22  1  1
  3 23  1  6
  6 24  1  0
  6 25  1  0
  6 26  1  0
  7 27  1  0
  7 28  1  0
  8 29  1  0
  8 30  1  0
  9 31  1  6
 11 32  1  6
 12 33  1  1
 13 34  1  0
 13 35  1  0
 13 36  1  0
 14 37  1  0
 14 38  1  0
 15 39  1  0
 15 40  1  0
 16 41  1  1
 17 42  1  0
 17 43  1  0
 17 44  1  0
 20 45  1  0
 20 46  1  0
 20 47  1  0
M  END
>  <score>  (3) 
-8.497

$$$$
=
     RDKit          3D

 47 50  0  0  0  0  0  0  0  0999 V2000
    0.0520   62.1640   74.0370 C   0  0  1  0  0  0  0  0  0  0  0  0
   -0.2380   61.5830   72.7760 O   0  0  0  0  0  0  0  0  0  0  0  0
    0.9190   60.9950   72.1770 C   0  0  2  0  0  0  0  0  0  0  0  0
    1.1450   59.7060   72.7410 O   0  0  0  0  0  0  0  0  0  0  0  0
    2.5090   59.2860   72.7420 C   0  0  1  0  0  0  0  0  0  0  0  0
    2.5560   58.0040   73.5730 C   0  0  0  0  0  0  0  0  0  0  0  0
    3.0440   59.0160   71.3420 C   0  0  0  0  0  0  0  0  0  0  0  0
    3.0810   60.2300   70.4100 C   0  0  0  0  0  0  0  0  0  0  0  0
    3.1020   61.6800   71.0010 C   0  0  2  0  0  0  0  0  0  0  0  0
    2.1860   61.8810   72.2630 C   0  0  1  0  0  0  0  0  0  0  0  0
    1.8210   63.3600   72.5680 C   0  0  2  0  0  0  0  0  0  0  0  0
    0.8690   63.4620   73.8150 C   0  0  1  0  0  0  0  0  0  0  0  0
    0.0070   64.7310   73.8210 C   0  0  0  0  0  0  0  0  0  0  0  0
    1.3340   64.0900   71.3160 C   0  0  0  0  0  0  0  0  0  0  0  0
    2.4270   64.0670   70.2600 C   0  0  0  0  0  0  0  0  0  0  0  0
    2.7380   62.6400   69.8190 C   0  0  1  0  0  0  0  0  0  0  0  0
    3.8400   62.6860   68.7490 C   0  0  0  0  0  0  0  0  0  0  0  0
    2.8740   61.4970   73.4830 O   0  0  0  0  0  0  0  0  0  0  0  0
    3.4600   60.1830   73.3280 O   0  0  0  0  0  0  0  0  0  0  0  0
   -2.1030   61.3520   74.5820 C   0  0  0  0  0  0  0  0  0  0  0  0
   -1.1740   62.4180   74.7200 O   0  0  0  0  0  0  0  0  0  0  0  0
    0.6542   61.4842   74.6577 H   0  0  0  0  0  0  0  0  0  0  0  0
    0.7121   60.8973   71.1011 H   0  0  0  0  0  0  0  0  0  0  0  0
    2.5466   58.2599   74.6428 H   0  0  0  0  0  0  0  0  0  0  0  0
    1.6801   57.3818   73.3371 H   0  0  0  0  0  0  0  0  0  0  0  0
    3.4751   57.4476   73.3371 H   0  0  0  0  0  0  0  0  0  0  0  0
    4.0697   58.6305   71.4387 H   0  0  0  0  0  0  0  0  0  0  0  0
    2.3458   58.3010   70.8824 H   0  0  0  0  0  0  0  0  0  0  0  0
    3.9857   60.1272   69.7929 H   0  0  0  0  0  0  0  0  0  0  0  0
    2.1075   60.1827   69.9001 H   0  0  0  0  0  0  0  0  0  0  0  0
    4.1027   61.9034   71.3993 H   0  0  0  0  0  0  0  0  0  0  0  0
    2.7323   63.9017   72.8616 H   0  0  0  0  0  0  0  0  0  0  0  0
    1.5253   63.5641   74.6918 H   0  0  0  0  0  0  0  0  0  0  0  0
   -0.1967   65.0309   74.8595 H   0  0  0  0  0  0  0  0  0  0  0  0
    0.5428   65.5407   73.3039 H   0  0  0  0  0  0  0  0  0  0  0  0
   -0.9431   64.5313   73.3039 H   0  0  0  0  0  0  0  0  0  0  0  0
    0.4359   63.5892   70.9254 H   0  0  0  0  0  0  0  0  0  0  0  0
    1.0908   65.1323   71.5700 H   0  0  0  0  0  0  0  0  0  0  0  0
    2.0948   64.6480   69.3870 H   0  0  0  0  0  0  0  0  0  0  0  0
    3.3388   64.5044   70.6928 H   0  0  0  0  0  0  0  0  0  0  0  0
    1.8214   62.2072   69.3916 H   0  0  0  0  0  0  0  0  0  0  0  0
    4.8244   62.7271   69.2381 H   0  0  0  0  0  0  0  0  0  0  0  0
    3.7797   61.7846   68.1215 H   0  0  0  0  0  0  0  0  0  0  0  0
    3.7047   63.5793   68.1215 H   0  0  0  0  0  0  0  0  0  0  0  0
   -2.4089   61.0009   75.5786 H   0  0  0  0  0  0  0  0  0  0  0  0
   -2.9868   61.7049   74.0303 H   0  0  0  0  0  0  0  0  0  0  0  0
   -1.6326   60.5248   74.0303 H   0  0  0  0  0  0  0  0  0  0  0  0
  2  1  1  0
  3  2  1  0
  4  3  1  0
  5  4  1  0
  5  6  1  1
  7  5  1  0
  8  7  1  0
  9  8  1  0
 10  9  1  0
 10  3  1  0
 11 10  1  0
 12 11  1  0
 12  1  1  0
 13 12  1  0
 14 11  1  0
 15 14  1  0
 16 15  1  0
 16  9  1  0
 17 16  1  0
 10 18  1  1
 19 18  1  0
 19  5  1  0
 21 20  1  0
 21  1  1  0
  1 22  1  1
  3 23  1  6
  6 24  1  0
  6 25  1  0
  6 26  1  0
  7 27  1  0
  7 28  1  0
  8 29  1  0
  8 30  1  0
  9 31  1  1
 11 32  1  1
 12 33  1  1
 13 34  1  0
 13 35  1  0
 13 36  1  0
 14 37  1  0
 14 38  1  0
 15 39  1  0
 15 40  1  0
 16 41  1  6
 17 42  1  0
 17 43  1  0
 17 44  1  0
 20 45  1  0
 20 46  1  0
 20 47  1  0
M  END
>  <score>  (4) 
-7.98

$$$$
=
     RDKit          3D

 47 50  0  0  0  0  0  0  0  0999 V2000
    2.1570   63.7600   70.8070 C   0  0  1  0  0  0  0  0  0  0  0  0
    1.0970   62.8430   70.5870 O   0  0  0  0  0  0  0  0  0  0  0  0
    0.9080   61.9660   71.7010 C   0  0  2  0  0  0  0  0  0  0  0  0
    0.1500   62.6310   72.7080 O   0  0  0  0  0  0  0  0  0  0  0  0
    0.4050   62.1850   74.0400 C   0  0  1  0  0  0  0  0  0  0  0  0
   -0.3300   63.1580   74.9600 C   0  0  0  0  0  0  0  0  0  0  0  0
   -0.0850   60.7650   74.2890 C   0  0  0  0  0  0  0  0  0  0  0  0
    0.5940   59.6800   73.4490 C   0  0  0  0  0  0  0  0  0  0  0  0
    2.0090   59.9330   72.8270 C   0  0  2  0  0  0  0  0  0  0  0  0
    2.2250   61.3880   72.2730 C   0  0  1  0  0  0  0  0  0  0  0  0
    3.3910   61.5250   71.2550 C   0  0  2  0  0  0  0  0  0  0  0  0
    3.5050   62.9990   70.7210 C   0  0  1  0  0  0  0  0  0  0  0  0
    4.1710   63.0990   69.3430 C   0  0  0  0  0  0  0  0  0  0  0  0
    3.3260   60.4460   70.1750 C   0  0  0  0  0  0  0  0  0  0  0  0
    3.4090   59.0750   70.8250 C   0  0  0  0  0  0  0  0  0  0  0  0
    2.2130   58.8240   71.7390 C   0  0  1  0  0  0  0  0  0  0  0  0
    2.3510   57.4240   72.3570 C   0  0  0  0  0  0  0  0  0  0  0  0
    2.6510   62.2970   73.3230 O   0  0  0  0  0  0  0  0  0  0  0  0
    1.7730   62.1780   74.4660 O   0  0  0  0  0  0  0  0  0  0  0  0
    1.1400   65.8110   70.2040 C   0  0  0  0  0  0  0  0  0  0  0  0
    2.0710   64.8020   69.8370 O   0  0  0  0  0  0  0  0  0  0  0  0
    2.0874   64.2159   71.8057 H   0  0  0  0  0  0  0  0  0  0  0  0
    0.3500   61.0923   71.3332 H   0  0  0  0  0  0  0  0  0  0  0  0
   -0.1299   62.8932   76.0087 H   0  0  0  0  0  0  0  0  0  0  0  0
    0.0220   64.1821   74.7669 H   0  0  0  0  0  0  0  0  0  0  0  0
   -1.4113   63.0994   74.7669 H   0  0  0  0  0  0  0  0  0  0  0  0
    0.0842   60.5286   75.3499 H   0  0  0  0  0  0  0  0  0  0  0  0
   -1.1457   60.7547   73.9979 H   0  0  0  0  0  0  0  0  0  0  0  0
    0.6856   58.7927   74.0927 H   0  0  0  0  0  0  0  0  0  0  0  0
   -0.0572   59.6037   72.5657 H   0  0  0  0  0  0  0  0  0  0  0  0
    2.7769   59.8649   73.6117 H   0  0  0  0  0  0  0  0  0  0  0  0
    4.3431   61.3354   71.7723 H   0  0  0  0  0  0  0  0  0  0  0  0
    4.1942   63.5171   71.4041 H   0  0  0  0  0  0  0  0  0  0  0  0
    5.2517   63.2613   69.4690 H   0  0  0  0  0  0  0  0  0  0  0  0
    4.0029   62.1655   68.7859 H   0  0  0  0  0  0  0  0  0  0  0  0
    3.7361   63.9419   68.7859 H   0  0  0  0  0  0  0  0  0  0  0  0
    2.3777   60.5343   69.6247 H   0  0  0  0  0  0  0  0  0  0  0  0
    4.1671   60.5733   69.4776 H   0  0  0  0  0  0  0  0  0  0  0  0
    3.4274   58.3058   70.0389 H   0  0  0  0  0  0  0  0  0  0  0  0
    4.3257   59.0321   71.4314 H   0  0  0  0  0  0  0  0  0  0  0  0
    1.2998   58.8718   71.1277 H   0  0  0  0  0  0  0  0  0  0  0  0
    2.3430   57.5050   73.4540 H   0  0  0  0  0  0  0  0  0  0  0  0
    1.5106   56.7943   72.0297 H   0  0  0  0  0  0  0  0  0  0  0  0
    3.2982   56.9705   72.0297 H   0  0  0  0  0  0  0  0  0  0  0  0
    1.0814   65.8745   71.3006 H   0  0  0  0  0  0  0  0  0  0  0  0
    1.4691   66.7788   69.7977 H   0  0  0  0  0  0  0  0  0  0  0  0
    0.1489   65.5607   69.7977 H   0  0  0  0  0  0  0  0  0  0  0  0
  2  1  1  0
  3  2  1  0
  4  3  1  0
  5  4  1  0
  5  6  1  1
  7  5  1  0
  8  7  1  0
  9  8  1  0
 10  9  1  0
 10  3  1  0
 11 10  1  0
 12 11  1  0
 12  1  1  0
 13 12  1  0
 14 11  1  0
 15 14  1  0
 16 15  1  0
 16  9  1  0
 17 16  1  0
 10 18  1  1
 19 18  1  0
 19  5  1  0
 21 20  1  0
 21  1  1  0
  1 22  1  1
  3 23  1  6
  6 24  1  0
  6 25  1  0
  6 26  1  0
  7 27  1  0
  7 28  1  0
  8 29  1  0
  8 30  1  0
  9 31  1  1
 11 32  1  1
 12 33  1  1
 13 34  1  0
 13 35  1  0
 13 36  1  0
 14 37  1  0
 14 38  1  0
 15 39  1  0
 15 40  1  0
 16 41  1  6
 17 42  1  0
 17 43  1  0
 17 44  1  0
 20 45  1  0
 20 46  1  0
 20 47  1  0
M  END
>  <score>  (5) 
-7.92

$$$$
=
     RDKit          3D

 47 50  0  0  0  0  0  0  0  0999 V2000
    3.7930   62.5940   71.0350 C   0  0  1  0  0  0  0  0  0  0  0  0
    2.6190   61.9990   70.5030 O   0  0  0  0  0  0  0  0  0  0  0  0
    1.6290   61.7770   71.5100 C   0  0  2  0  0  0  0  0  0  0  0  0
    0.9240   62.9910   71.7620 O   0  0  0  0  0  0  0  0  0  0  0  0
    0.3960   63.1120   73.0830 C   0  0  1  0  0  0  0  0  0  0  0  0
   -0.1150   64.5470   73.2040 C   0  0  0  0  0  0  0  0  0  0  0  0
   -0.7370   62.1320   73.3560 C   0  0  0  0  0  0  0  0  0  0  0  0
   -0.3520   60.6520   73.2970 C   0  0  0  0  0  0  0  0  0  0  0  0
    1.1390   60.2140   73.4940 C   0  0  2  0  0  0  0  0  0  0  0  0
    2.1910   61.1680   72.8170 C   0  0  1  0  0  0  0  0  0  0  0  0
    3.5880   60.5290   72.5870 C   0  0  2  0  0  0  0  0  0  0  0  0
    4.5580   61.5350   71.8680 C   0  0  1  0  0  0  0  0  0  0  0  0
    5.6830   60.8440   71.0870 C   0  0  0  0  0  0  0  0  0  0  0  0
    3.4770   59.1520   71.9330 C   0  0  0  0  0  0  0  0  0  0  0  0
    2.6640   58.2310   72.8270 C   0  0  0  0  0  0  0  0  0  0  0  0
    1.2330   58.7360   72.9840 C   0  0  1  0  0  0  0  0  0  0  0  0
    0.4640   57.7610   73.8890 C   0  0  0  0  0  0  0  0  0  0  0  0
    2.5250   62.2860   73.6820 O   0  0  0  0  0  0  0  0  0  0  0  0
    1.3150   62.9160   74.1640 O   0  0  0  0  0  0  0  0  0  0  0  0
    3.9110   63.0110   68.7080 C   0  0  0  0  0  0  0  0  0  0  0  0
    4.5820   63.0950   69.9570 O   0  0  0  0  0  0  0  0  0  0  0  0
    3.5468   63.4358   71.6989 H   0  0  0  0  0  0  0  0  0  0  0  0
    0.9347   61.0190   71.1183 H   0  0  0  0  0  0  0  0  0  0  0  0
   -0.2101   64.8140   74.2669 H   0  0  0  0  0  0  0  0  0  0  0  0
    0.5947   65.2313   72.7161 H   0  0  0  0  0  0  0  0  0  0  0  0
   -1.0975   64.6287   72.7161 H   0  0  0  0  0  0  0  0  0  0  0  0
   -1.1314   62.3404   74.3615 H   0  0  0  0  0  0  0  0  0  0  0  0
   -1.4722   62.2866   72.5526 H   0  0  0  0  0  0  0  0  0  0  0  0
   -0.9368   60.1421   74.0768 H   0  0  0  0  0  0  0  0  0  0  0  0
   -0.5543   60.3834   72.2496 H   0  0  0  0  0  0  0  0  0  0  0  0
    1.4084   60.2835   74.5582 H   0  0  0  0  0  0  0  0  0  0  0  0
    4.0571   60.3299   73.5619 H   0  0  0  0  0  0  0  0  0  0  0  0
    5.0710   62.0881   72.6686 H   0  0  0  0  0  0  0  0  0  0  0  0
    6.4018   60.4025   71.7929 H   0  0  0  0  0  0  0  0  0  0  0  0
    5.2569   60.0517   70.4540 H   0  0  0  0  0  0  0  0  0  0  0  0
    6.1970   61.5823   70.4540 H   0  0  0  0  0  0  0  0  0  0  0  0
    2.9793   59.2487   70.9568 H   0  0  0  0  0  0  0  0  0  0  0  0
    4.4834   58.7311   71.7913 H   0  0  0  0  0  0  0  0  0  0  0  0
    2.6427   57.2255   72.3815 H   0  0  0  0  0  0  0  0  0  0  0  0
    3.1351   58.2052   73.8207 H   0  0  0  0  0  0  0  0  0  0  0  0
    0.7692   58.7630   71.9869 H   0  0  0  0  0  0  0  0  0  0  0  0
    0.6588   58.0079   74.9431 H   0  0  0  0  0  0  0  0  0  0  0  0
   -0.6138   57.8447   73.6859 H   0  0  0  0  0  0  0  0  0  0  0  0
    0.7966   56.7323   73.6859 H   0  0  0  0  0  0  0  0  0  0  0  0
    2.8328   62.8760   68.8793 H   0  0  0  0  0  0  0  0  0  0  0  0
    4.0787   63.9371   68.1387 H   0  0  0  0  0  0  0  0  0  0  0  0
    4.3018   62.1548   68.1387 H   0  0  0  0  0  0  0  0  0  0  0  0
  2  1  1  0
  3  2  1  0
  4  3  1  0
  5  4  1  0
  5  6  1  6
  7  5  1  0
  8  7  1  0
  9  8  1  0
 10  9  1  0
 10  3  1  0
 11 10  1  0
 12 11  1  0
 12  1  1  0
 13 12  1  0
 14 11  1  0
 15 14  1  0
 16 15  1  0
 16  9  1  0
 17 16  1  0
 10 18  1  1
 19 18  1  0
 19  5  1  0
 21 20  1  0
 21  1  1  0
  1 22  1  1
  3 23  1  6
  6 24  1  0
  6 25  1  0
  6 26  1  0
  7 27  1  0
  7 28  1  0
  8 29  1  0
  8 30  1  0
  9 31  1  1
 11 32  1  1
 12 33  1  1
 13 34  1  0
 13 35  1  0
 13 36  1  0
 14 37  1  0
 14 38  1  0
 15 39  1  0
 15 40  1  0
 16 41  1  6
 17 42  1  0
 17 43  1  0
 17 44  1  0
 20 45  1  0
 20 46  1  0
 20 47  1  0
M  END
>  <score>  (6) 
-7.76

$$$$
=
     RDKit          3D

 47 50  0  0  0  0  0  0  0  0999 V2000
    0.9020   63.1500   73.4210 C   0  0  1  0  0  0  0  0  0  0  0  0
    1.9870   62.4690   74.0310 O   0  0  0  0  0  0  0  0  0  0  0  0
    2.7520   61.7220   73.0810 C   0  0  2  0  0  0  0  0  0  0  0  0
    3.6540   62.5930   72.4030 O   0  0  0  0  0  0  0  0  0  0  0  0
    3.9980   62.1830   71.0800 C   0  0  1  0  0  0  0  0  0  0  0  0
    4.7800   63.3450   70.4680 C   0  0  0  0  0  0  0  0  0  0  0  0
    4.8450   60.9180   71.0570 C   0  0  0  0  0  0  0  0  0  0  0  0
    4.1680   59.6650   71.6160 C   0  0  0  0  0  0  0  0  0  0  0  0
    2.6050   59.5710   71.6770 C   0  0  2  0  0  0  0  0  0  0  0  0
    1.8900   60.9110   72.0840 C   0  0  1  0  0  0  0  0  0  0  0  0
    0.4370   60.7350   72.6060 C   0  0  2  0  0  0  0  0  0  0  0  0
   -0.1830   62.1160   73.0290 C   0  0  1  0  0  0  0  0  0  0  0  0
   -1.3040   61.9870   74.0690 C   0  0  0  0  0  0  0  0  0  0  0  0
    0.3470   59.6310   73.6590 C   0  0  0  0  0  0  0  0  0  0  0  0
    0.8080   58.3160   73.0530 C   0  0  0  0  0  0  0  0  0  0  0  0
    2.2750   58.3820   72.6410 C   0  0  1  0  0  0  0  0  0  0  0  0
    2.6800   57.0240   72.0460 C   0  0  0  0  0  0  0  0  0  0  0  0
    1.6790   61.7700   70.9310 O   0  0  0  0  0  0  0  0  0  0  0  0
    2.9120   61.9100   70.1870 O   0  0  0  0  0  0  0  0  0  0  0  0
    1.1800   64.2110   75.5190 C   0  0  0  0  0  0  0  0  0  0  0  0
    0.4020   64.1260   74.3330 O   0  0  0  0  0  0  0  0  0  0  0  0
    1.2229   63.6692   72.5059 H   0  0  0  0  0  0  0  0  0  0  0  0
    3.3203   60.9678   73.6451 H   0  0  0  0  0  0  0  0  0  0  0  0
    5.1994   63.9682   71.2715 H   0  0  0  0  0  0  0  0  0  0  0  0
    5.5968   62.9500   69.8460 H   0  0  0  0  0  0  0  0  0  0  0  0
    4.1065   63.9530   69.8460 H   0  0  0  0  0  0  0  0  0  0  0  0
    5.1244   60.7155   70.0125 H   0  0  0  0  0  0  0  0  0  0  0  0
    5.7047   61.1168   71.7138 H   0  0  0  0  0  0  0  0  0  0  0  0
    4.5117   58.8195   71.0021 H   0  0  0  0  0  0  0  0  0  0  0  0
    4.4588   59.6766   72.6768 H   0  0  0  0  0  0  0  0  0  0  0  0
    2.2046   59.3866   70.6692 H   0  0  0  0  0  0  0  0  0  0  0  0
   -0.2001   60.3786   71.7831 H   0  0  0  0  0  0  0  0  0  0  0  0
   -0.6772   62.5165   72.1316 H   0  0  0  0  0  0  0  0  0  0  0  0
   -0.8736   62.0365   75.0801 H   0  0  0  0  0  0  0  0  0  0  0  0
   -2.0237   62.8083   73.9362 H   0  0  0  0  0  0  0  0  0  0  0  0
   -1.8183   61.0237   73.9362 H   0  0  0  0  0  0  0  0  0  0  0  0
    0.9901   59.8863   74.5142 H   0  0  0  0  0  0  0  0  0  0  0  0
   -0.6941   59.5331   74.0003 H   0  0  0  0  0  0  0  0  0  0  0  0
    0.6796   57.5145   73.7953 H   0  0  0  0  0  0  0  0  0  0  0  0
    0.2034   58.1151   72.1563 H   0  0  0  0  0  0  0  0  0  0  0  0
    2.8737   58.5877   73.5406 H   0  0  0  0  0  0  0  0  0  0  0  0
    2.8914   56.3153   72.8603 H   0  0  0  0  0  0  0  0  0  0  0  0
    1.8586   56.6357   71.4259 H   0  0  0  0  0  0  0  0  0  0  0  0
    3.5799   57.1491   71.4259 H   0  0  0  0  0  0  0  0  0  0  0  0
    0.5203   64.1389   76.3962 H   0  0  0  0  0  0  0  0  0  0  0  0
    1.9085   63.3871   75.5394 H   0  0  0  0  0  0  0  0  0  0  0  0
    1.7135   65.1728   75.5394 H   0  0  0  0  0  0  0  0  0  0  0  0
  2  1  1  0
  3  2  1  0
  4  3  1  0
  5  4  1  0
  5  6  1  6
  7  5  1  0
  8  7  1  0
  9  8  1  0
 10  9  1  0
 10  3  1  0
 11 10  1  0
 12 11  1  0
 12  1  1  0
 13 12  1  0
 14 11  1  0
 15 14  1  0
 16 15  1  0
 16  9  1  0
 17 16  1  0
 10 18  1  6
 19 18  1  0
 19  5  1  0
 21 20  1  0
 21  1  1  0
  1 22  1  6
  3 23  1  1
  6 24  1  0
  6 25  1  0
  6 26  1  0
  7 27  1  0
  7 28  1  0
  8 29  1  0
  8 30  1  0
  9 31  1  6
 11 32  1  6
 12 33  1  6
 13 34  1  0
 13 35  1  0
 13 36  1  0
 14 37  1  0
 14 38  1  0
 15 39  1  0
 15 40  1  0
 16 41  1  1
 17 42  1  0
 17 43  1  0
 17 44  1  0
 20 45  1  0
 20 46  1  0
 20 47  1  0
M  END
>  <score>  (7) 
-7.717

$$$$
=
     RDKit          3D

 47 50  0  0  0  0  0  0  0  0999 V2000
    1.0850   67.3940   66.8490 C   0  0  1  0  0  0  0  0  0  0  0  0
    1.0550   66.6030   65.6710 O   0  0  0  0  0  0  0  0  0  0  0  0
    1.7700   67.2160   64.5950 C   0  0  2  0  0  0  0  0  0  0  0  0
    3.1660   66.9700   64.7490 O   0  0  0  0  0  0  0  0  0  0  0  0
    4.0140   67.9700   64.1860 C   0  0  1  0  0  0  0  0  0  0  0  0
    5.4310   67.6320   64.6460 C   0  0  0  0  0  0  0  0  0  0  0  0
    3.9560   68.0030   62.6640 C   0  0  0  0  0  0  0  0  0  0  0  0
    2.5940   68.3620   62.0680 C   0  0  0  0  0  0  0  0  0  0  0  0
    1.5420   69.1520   62.9180 C   0  0  2  0  0  0  0  0  0  0  0  0
    1.4770   68.7260   64.4300 C   0  0  1  0  0  0  0  0  0  0  0  0
    0.1650   69.1300   65.1580 C   0  0  2  0  0  0  0  0  0  0  0  0
    0.1680   68.6270   66.6470 C   0  0  1  0  0  0  0  0  0  0  0  0
   -1.2390   68.4390   67.2300 C   0  0  0  0  0  0  0  0  0  0  0  0
   -1.0720   68.7480   64.3450 C   0  0  0  0  0  0  0  0  0  0  0  0
   -1.0280   69.4520   62.9990 C   0  0  0  0  0  0  0  0  0  0  0  0
    0.1710   68.9940   62.1750 C   0  0  1  0  0  0  0  0  0  0  0  0
    0.1530   69.7330   60.8280 C   0  0  0  0  0  0  0  0  0  0  0  0
    2.4720   69.4280   65.2210 O   0  0  0  0  0  0  0  0  0  0  0  0
    3.7690   69.3240   64.5880 O   0  0  0  0  0  0  0  0  0  0  0  0
    1.1860   67.0560   69.1890 C   0  0  0  0  0  0  0  0  0  0  0  0
    0.6660   66.5930   67.9510 O   0  0  0  0  0  0  0  0  0  0  0  0
    2.1019   67.7571   67.0589 H   0  0  0  0  0  0  0  0  0  0  0  0
    1.4121   66.7528   63.6636 H   0  0  0  0  0  0  0  0  0  0  0  0
    5.4673   67.6233   65.7454 H   0  0  0  0  0  0  0  0  0  0  0  0
    5.7146   66.6410   64.2619 H   0  0  0  0  0  0  0  0  0  0  0  0
    6.1314   68.3883   64.2619 H   0  0  0  0  0  0  0  0  0  0  0  0
    4.6870   68.7460   62.3124 H   0  0  0  0  0  0  0  0  0  0  0  0
    4.1729   66.9777   62.3297 H   0  0  0  0  0  0  0  0  0  0  0  0
    2.7914   68.9651   61.1695 H   0  0  0  0  0  0  0  0  0  0  0  0
    2.1162   67.3809   61.9294 H   0  0  0  0  0  0  0  0  0  0  0  0
    1.8370   70.2096   62.9844 H   0  0  0  0  0  0  0  0  0  0  0  0
    0.1160   70.2267   65.2279 H   0  0  0  0  0  0  0  0  0  0  0  0
    0.6123   69.4394   67.2408 H   0  0  0  0  0  0  0  0  0  0  0  0
   -1.1846   68.4463   68.3286 H   0  0  0  0  0  0  0  0  0  0  0  0
   -1.8894   69.2582   66.8896 H   0  0  0  0  0  0  0  0  0  0  0  0
   -1.6515   67.4778   66.8896 H   0  0  0  0  0  0  0  0  0  0  0  0
   -1.0872   67.6592   64.1894 H   0  0  0  0  0  0  0  0  0  0  0  0
   -1.9781   69.0521   64.8895 H   0  0  0  0  0  0  0  0  0  0  0  0
   -1.9512   69.2255   62.4454 H   0  0  0  0  0  0  0  0  0  0  0  0
   -0.9364   70.5339   63.1750 H   0  0  0  0  0  0  0  0  0  0  0  0
    0.0766   67.9112   62.0060 H   0  0  0  0  0  0  0  0  0  0  0  0
    0.1266   70.8183   61.0055 H   0  0  0  0  0  0  0  0  0  0  0  0
    1.0577   69.4768   60.2571 H   0  0  0  0  0  0  0  0  0  0  0  0
   -0.7381   69.4330   60.2571 H   0  0  0  0  0  0  0  0  0  0  0  0
    0.6451   66.5744   70.0170 H   0  0  0  0  0  0  0  0  0  0  0  0
    2.2551   66.8053   69.2544 H   0  0  0  0  0  0  0  0  0  0  0  0
    1.0605   68.1469   69.2544 H   0  0  0  0  0  0  0  0  0  0  0  0
  2  1  1  0
  3  2  1  0
  4  3  1  0
  5  4  1  0
  5  6  1  6
  7  5  1  0
  8  7  1  0
  9  8  1  0
 10  9  1  0
 10  3  1  0
 11 10  1  0
 12 11  1  0
 12  1  1  0
 13 12  1  0
 14 11  1  0
 15 14  1  0
 16 15  1  0
 16  9  1  0
 17 16  1  0
 10 18  1  1
 19 18  1  0
 19  5  1  0
 21 20  1  0
 21  1  1  0
  1 22  1  1
  3 23  1  6
  6 24  1  0
  6 25  1  0
  6 26  1  0
  7 27  1  0
  7 28  1  0
  8 29  1  0
  8 30  1  0
  9 31  1  1
 11 32  1  1
 12 33  1  1
 13 34  1  0
 13 35  1  0
 13 36  1  0
 14 37  1  0
 14 38  1  0
 15 39  1  0
 15 40  1  0
 16 41  1  6
 17 42  1  0
 17 43  1  0
 17 44  1  0
 20 45  1  0
 20 46  1  0
 20 47  1  0
M  END
>  <score>  (8) 
-7.676

$$$$
=
     RDKit          3D

 47 50  0  0  0  0  0  0  0  0999 V2000
    2.0710   62.8870   70.4640 C   0  0  1  0  0  0  0  0  0  0  0  0
    2.9910   63.0620   71.5310 O   0  0  0  0  0  0  0  0  0  0  0  0
    2.7670   62.1260   72.5890 C   0  0  2  0  0  0  0  0  0  0  0  0
    3.3640   60.8760   72.2540 O   0  0  0  0  0  0  0  0  0  0  0  0
    2.7320   59.7370   72.8400 C   0  0  1  0  0  0  0  0  0  0  0  0
    3.3770   58.5150   72.1880 C   0  0  0  0  0  0  0  0  0  0  0  0
    2.9140   59.6770   74.3510 C   0  0  0  0  0  0  0  0  0  0  0  0
    2.2850   60.8320   75.1330 C   0  0  0  0  0  0  0  0  0  0  0  0
    1.1170   61.6680   74.5080 C   0  0  2  0  0  0  0  0  0  0  0  0
    1.2770   61.9590   72.9710 C   0  0  1  0  0  0  0  0  0  0  0  0
    0.4230   63.1450   72.4460 C   0  0  2  0  0  0  0  0  0  0  0  0
    0.6780   63.3930   70.9150 C   0  0  1  0  0  0  0  0  0  0  0  0
    0.3800   64.8310   70.4720 C   0  0  0  0  0  0  0  0  0  0  0  0
    0.5640   64.3790   73.3370 C   0  0  0  0  0  0  0  0  0  0  0  0
    0.1100   64.0400   74.7470 C   0  0  0  0  0  0  0  0  0  0  0  0
    0.9990   62.9690   75.3710 C   0  0  1  0  0  0  0  0  0  0  0  0
    0.4950   62.6780   76.7930 C   0  0  0  0  0  0  0  0  0  0  0  0
    0.7680   60.8600   72.1680 O   0  0  0  0  0  0  0  0  0  0  0  0
    1.3200   59.6080   72.6370 O   0  0  0  0  0  0  0  0  0  0  0  0
    3.7120   63.0000   68.7610 C   0  0  0  0  0  0  0  0  0  0  0  0
    2.5510   63.5970   69.3230 O   0  0  0  0  0  0  0  0  0  0  0  0
    1.9756   61.8255   70.1916 H   0  0  0  0  0  0  0  0  0  0  0  0
    3.2468   62.5353   73.4903 H   0  0  0  0  0  0  0  0  0  0  0  0
    3.7384   57.8304   72.9695 H   0  0  0  0  0  0  0  0  0  0  0  0
    2.6342   57.9982   71.5626 H   0  0  0  0  0  0  0  0  0  0  0  0
    4.2228   58.8367   71.5626 H   0  0  0  0  0  0  0  0  0  0  0  0
    2.4648   58.7393   74.7102 H   0  0  0  0  0  0  0  0  0  0  0  0
    3.9974   59.7441   74.5292 H   0  0  0  0  0  0  0  0  0  0  0  0
    1.9012   60.4058   76.0717 H   0  0  0  0  0  0  0  0  0  0  0  0
    3.1049   61.5621   75.2011 H   0  0  0  0  0  0  0  0  0  0  0  0
    0.1845   61.0854   74.5409 H   0  0  0  0  0  0  0  0  0  0  0  0
   -0.6419   62.8785   72.5163 H   0  0  0  0  0  0  0  0  0  0  0  0
   -0.0595   62.7773   70.3794 H   0  0  0  0  0  0  0  0  0  0  0  0
    0.2480   65.4680   71.3590 H   0  0  0  0  0  0  0  0  0  0  0  0
    1.2186   65.2104   69.8697 H   0  0  0  0  0  0  0  0  0  0  0  0
   -0.5403   64.8458   69.8697 H   0  0  0  0  0  0  0  0  0  0  0  0
    1.6165   64.6982   73.3574 H   0  0  0  0  0  0  0  0  0  0  0  0
   -0.0583   65.1931   72.9371 H   0  0  0  0  0  0  0  0  0  0  0  0
    0.1541   64.9482   75.3661 H   0  0  0  0  0  0  0  0  0  0  0  0
   -0.9186   63.6532   74.6979 H   0  0  0  0  0  0  0  0  0  0  0  0
    2.0262   63.3602   75.4138 H   0  0  0  0  0  0  0  0  0  0  0  0
    1.2059   63.0885   77.5252 H   0  0  0  0  0  0  0  0  0  0  0  0
   -0.4900   63.1464   76.9359 H   0  0  0  0  0  0  0  0  0  0  0  0
    0.4082   61.5908   76.9359 H   0  0  0  0  0  0  0  0  0  0  0  0
    4.3762   62.6585   69.5686 H   0  0  0  0  0  0  0  0  0  0  0  0
    3.4185   62.1410   68.1397 H   0  0  0  0  0  0  0  0  0  0  0  0
    4.2399   63.7385   68.1397 H   0  0  0  0  0  0  0  0  0  0  0  0
  2  1  1  0
  3  2  1  0
  4  3  1  0
  5  4  1  0
  5  6  1  6
  7  5  1  0
  8  7  1  0
  9  8  1  0
 10  9  1  0
 10  3  1  0
 11 10  1  0
 12 11  1  0
 12  1  1  0
 13 12  1  0
 14 11  1  0
 15 14  1  0
 16 15  1  0
 16  9  1  0
 17 16  1  0
 10 18  1  6
 19 18  1  0
 19  5  1  0
 21 20  1  0
 21  1  1  0
  1 22  1  6
  3 23  1  1
  6 24  1  0
  6 25  1  0
  6 26  1  0
  7 27  1  0
  7 28  1  0
  8 29  1  0
  8 30  1  0
  9 31  1  6
 11 32  1  6
 12 33  1  6
 13 34  1  0
 13 35  1  0
 13 36  1  0
 14 37  1  0
 14 38  1  0
 15 39  1  0
 15 40  1  0
 16 41  1  1
 17 42  1  0
 17 43  1  0
 17 44  1  0
 20 45  1  0
 20 46  1  0
 20 47  1  0
M  END
>  <score>  (9) 
-7.17

$$$$
