=
     RDKit          3D

 43 44  0  0  0  0  0  0  0  0999 V2000
   -0.4040   68.3050   66.6870 C   0  0  0  0  0  0  0  0  0  0  0  0
   -1.3040   67.1330   67.1000 C   0  0  0  0  0  0  0  0  0  0  0  0
   -1.1650   66.8200   68.5850 C   0  0  0  0  0  0  0  0  0  0  0  0
    0.2830   66.5390   68.9130 N   0  0  0  0  0  4  0  0  0  0  0  0
    1.1860   67.6890   68.5480 C   0  0  0  0  0  0  0  0  0  0  0  0
    1.0500   67.9980   67.0620 C   0  0  0  0  0  0  0  0  0  0  0  0
   -0.5210   68.6260   65.1870 C   0  0  0  0  0  0  0  0  0  0  0  0
    0.7170   68.3140   63.0660 C   0  0  0  0  0  0  0  0  0  0  0  0
   -0.2780   68.1860   62.3700 O   0  0  0  0  0  0  0  0  0  0  0  0
    0.7050   68.4080   64.4490 N   0  0  0  0  0  0  0  0  0  0  0  0
    2.2430   69.0420   61.3200 N   0  0  0  0  0  0  0  0  0  0  0  0
    2.0950   68.3780   62.4370 C   0  0  0  0  0  0  0  0  0  0  0  0
    3.5670   69.0310   60.8580 O   0  0  0  0  0  0  0  0  0  0  0  0
    3.2330   67.7420   63.0600 C   0  0  0  0  0  0  0  0  0  0  0  0
    4.1490   67.2050   63.5350 N   0  0  0  0  0  0  0  0  0  0  0  0
    0.4770   66.1350   70.3640 C   0  0  0  0  0  0  0  0  0  0  0  0
    1.1380   64.7920   70.5170 C   0  0  0  0  0  0  0  0  0  0  0  0
    0.3850   63.6670   70.8930 C   0  0  0  0  0  0  0  0  0  0  0  0
    1.0050   62.4270   71.0600 C   0  0  0  0  0  0  0  0  0  0  0  0
    2.3760   62.2990   70.8550 C   0  0  0  0  0  0  0  0  0  0  0  0
    3.1320   63.4070   70.4760 C   0  0  0  0  0  0  0  0  0  0  0  0
    2.5170   64.6480   70.3070 C   0  0  0  0  0  0  0  0  0  0  0  0
   -0.7423   69.1984   67.2324 H   0  0  0  0  0  0  0  0  0  0  0  0
   -2.3511   67.3934   66.8858 H   0  0  0  0  0  0  0  0  0  0  0  0
   -0.9976   66.2440   66.5292 H   0  0  0  0  0  0  0  0  0  0  0  0
   -1.5129   67.6812   69.1743 H   0  0  0  0  0  0  0  0  0  0  0  0
   -1.7720   65.9358   68.8292 H   0  0  0  0  0  0  0  0  0  0  0  0
    0.5552   65.7353   68.3291 H   0  0  0  0  0  0  0  0  0  0  0  0
    0.9027   68.5762   69.1333 H   0  0  0  0  0  0  0  0  0  0  0  0
    2.2287   67.4176   68.7694 H   0  0  0  0  0  0  0  0  0  0  0  0
    1.6744   68.8704   66.8190 H   0  0  0  0  0  0  0  0  0  0  0  0
    1.3759   67.1149   66.4929 H   0  0  0  0  0  0  0  0  0  0  0  0
   -1.3050   67.9867   64.7550 H   0  0  0  0  0  0  0  0  0  0  0  0
   -0.7604   69.6965   65.1046 H   0  0  0  0  0  0  0  0  0  0  0  0
    1.5920   68.3204   64.9652 H   0  0  0  0  0  0  0  0  0  0  0  0
    3.8026   69.5014   60.0193 H   0  0  0  0  0  0  0  0  0  0  0  0
    1.1035   66.8923   70.8580 H   0  0  0  0  0  0  0  0  0  0  0  0
   -0.5206   66.0649   70.8222 H   0  0  0  0  0  0  0  0  0  0  0  0
   -0.6985   63.7635   71.0567 H   0  0  0  0  0  0  0  0  0  0  0  0
    0.4093   61.5502   71.3539 H   0  0  0  0  0  0  0  0  0  0  0  0
    2.8632   61.3224   70.9923 H   0  0  0  0  0  0  0  0  0  0  0  0
    4.2144   63.3030   70.3100 H   0  0  0  0  0  0  0  0  0  0  0  0
    3.1179   65.5192   70.0070 H   0  0  0  0  0  0  0  0  0  0  0  0
  2  1  1  0
  3  2  1  0
  4  3  1  0
  5  4  1  0
  6  5  1  0
  6  1  1  0
  7  1  1  0
  9  8  2  0
 10  8  1  0
 10  7  1  0
 12 11  2  0
 12  8  1  0
 13 11  1  0
 14 12  1  0
 15 14  3  0
 16  4  1  0
 17 16  1  0
 18 17  2  0
 19 18  1  0
 20 19  2  0
 21 20  1  0
 22 21  2  0
 22 17  1  0
  1 23  1  0
  2 24  1  0
  2 25  1  0
  3 26  1  0
  3 27  1  0
  4 28  1  0
  5 29  1  0
  5 30  1  0
  6 31  1  0
  6 32  1  0
  7 33  1  0
  7 34  1  0
 10 35  1  0
 13 36  1  0
 16 37  1  0
 16 38  1  0
 18 39  1  0
 19 40  1  0
 20 41  1  0
 21 42  1  0
 22 43  1  0
M  CHG  1   4   1
M  END
>  <score>  (1) 
-8.583

$$$$
=
     RDKit          3D

 43 44  0  0  0  0  0  0  0  0999 V2000
    0.0550   68.2360   66.6900 C   0  0  0  0  0  0  0  0  0  0  0  0
   -0.9360   67.0910   66.9390 C   0  0  0  0  0  0  0  0  0  0  0  0
   -1.0840   66.7960   68.4260 C   0  0  0  0  0  0  0  0  0  0  0  0
    0.2690   66.4870   69.0220 N   0  0  0  0  0  4  0  0  0  0  0  0
    1.2530   67.6100   68.8210 C   0  0  0  0  0  0  0  0  0  0  0  0
    1.4050   67.9010   67.3330 C   0  0  0  0  0  0  0  0  0  0  0  0
    0.2290   68.5390   65.1920 C   0  0  0  0  0  0  0  0  0  0  0  0
    2.4130   67.9780   64.1720 C   0  0  0  0  0  0  0  0  0  0  0  0
    2.8510   69.1180   64.2030 O   0  0  0  0  0  0  0  0  0  0  0  0
    1.1180   67.6210   64.5130 N   0  0  0  0  0  0  0  0  0  0  0  0
    4.1210   67.0110   62.7380 N   0  0  0  0  0  0  0  0  0  0  0  0
    3.2960   66.8250   63.7360 C   0  0  0  0  0  0  0  0  0  0  0  0
    4.8840   65.8710   62.4490 O   0  0  0  0  0  0  0  0  0  0  0  0
    3.2540   65.5500   64.4140 C   0  0  0  0  0  0  0  0  0  0  0  0
    3.2450   64.5350   64.9830 N   0  0  0  0  0  0  0  0  0  0  0  0
    0.1790   66.0990   70.4880 C   0  0  0  0  0  0  0  0  0  0  0  0
    0.9140   64.8260   70.8050 C   0  0  0  0  0  0  0  0  0  0  0  0
    2.2510   64.6590   70.4090 C   0  0  0  0  0  0  0  0  0  0  0  0
    2.9240   63.4660   70.6810 C   0  0  0  0  0  0  0  0  0  0  0  0
    2.2710   62.4330   71.3490 C   0  0  0  0  0  0  0  0  0  0  0  0
    0.9470   62.5900   71.7520 C   0  0  0  0  0  0  0  0  0  0  0  0
    0.2700   63.7800   71.4820 C   0  0  0  0  0  0  0  0  0  0  0  0
   -0.3571   69.1443   67.1538 H   0  0  0  0  0  0  0  0  0  0  0  0
   -1.9179   67.3726   66.5308 H   0  0  0  0  0  0  0  0  0  0  0  0
   -0.5514   66.1872   66.4439 H   0  0  0  0  0  0  0  0  0  0  0  0
   -1.5143   67.6731   68.9315 H   0  0  0  0  0  0  0  0  0  0  0  0
   -1.7474   65.9290   68.5606 H   0  0  0  0  0  0  0  0  0  0  0  0
    0.6246   65.6688   68.5072 H   0  0  0  0  0  0  0  0  0  0  0  0
    0.8881   68.5119   69.3343 H   0  0  0  0  0  0  0  0  0  0  0  0
    2.2288   67.3174   69.2360 H   0  0  0  0  0  0  0  0  0  0  0  0
    2.0857   68.7552   67.2027 H   0  0  0  0  0  0  0  0  0  0  0  0
    1.8092   67.0028   66.8433 H   0  0  0  0  0  0  0  0  0  0  0  0
   -0.7584   68.4869   64.7100 H   0  0  0  0  0  0  0  0  0  0  0  0
    0.6803   69.5393   65.1163 H   0  0  0  0  0  0  0  0  0  0  0  0
    0.7794   66.6773   64.2769 H   0  0  0  0  0  0  0  0  0  0  0  0
    5.5447   65.8913   61.7120 H   0  0  0  0  0  0  0  0  0  0  0  0
    0.6083   66.9115   71.0926 H   0  0  0  0  0  0  0  0  0  0  0  0
   -0.8833   65.9320   70.7196 H   0  0  0  0  0  0  0  0  0  0  0  0
    2.7710   65.4724   69.8817 H   0  0  0  0  0  0  0  0  0  0  0  0
    3.9710   63.3420   70.3673 H   0  0  0  0  0  0  0  0  0  0  0  0
    2.8013   61.4923   71.5585 H   0  0  0  0  0  0  0  0  0  0  0  0
    0.4344   61.7749   72.2838 H   0  0  0  0  0  0  0  0  0  0  0  0
   -0.7757   63.8985   71.8022 H   0  0  0  0  0  0  0  0  0  0  0  0
  2  1  1  0
  3  2  1  0
  4  3  1  0
  5  4  1  0
  6  5  1  0
  6  1  1  0
  7  1  1  0
  9  8  2  0
 10  8  1  0
 10  7  1  0
 12 11  2  0
 12  8  1  0
 13 11  1  0
 14 12  1  0
 15 14  3  0
 16  4  1  0
 17 16  1  0
 18 17  2  0
 19 18  1  0
 20 19  2  0
 21 20  1  0
 22 21  2  0
 22 17  1  0
  1 23  1  0
  2 24  1  0
  2 25  1  0
  3 26  1  0
  3 27  1  0
  4 28  1  0
  5 29  1  0
  5 30  1  0
  6 31  1  0
  6 32  1  0
  7 33  1  0
  7 34  1  0
 10 35  1  0
 13 36  1  0
 16 37  1  0
 16 38  1  0
 18 39  1  0
 19 40  1  0
 20 41  1  0
 21 42  1  0
 22 43  1  0
M  CHG  1   4   1
M  END
>  <score>  (2) 
-8.211

$$$$
=
     RDKit          3D

 43 44  0  0  0  0  0  0  0  0999 V2000
    1.3490   63.0580   71.9290 C   0  0  0  0  0  0  0  0  0  0  0  0
    2.1750   63.1930   70.6430 C   0  0  0  0  0  0  0  0  0  0  0  0
    2.4180   64.6550   70.2870 C   0  0  0  0  0  0  0  0  0  0  0  0
    1.0970   65.3760   70.1650 N   0  0  0  0  0  4  0  0  0  0  0  0
    0.2780   65.2880   71.4280 C   0  0  0  0  0  0  0  0  0  0  0  0
    0.0310   63.8270   71.7800 C   0  0  0  0  0  0  0  0  0  0  0  0
    1.0810   61.5890   72.2960 C   0  0  0  0  0  0  0  0  0  0  0  0
    2.1370   59.3560   72.1340 C   0  0  0  0  0  0  0  0  0  0  0  0
    1.6840   58.9370   73.1880 O   0  0  0  0  0  0  0  0  0  0  0  0
    2.0020   60.6580   71.6800 N   0  0  0  0  0  0  0  0  0  0  0  0
    2.9380   57.1580   71.4740 N   0  0  0  0  0  0  0  0  0  0  0  0
    2.9150   58.4380   71.2110 C   0  0  0  0  0  0  0  0  0  0  0  0
    3.6810   56.4270   70.5360 O   0  0  0  0  0  0  0  0  0  0  0  0
    3.6020   58.9520   70.0480 C   0  0  0  0  0  0  0  0  0  0  0  0
    4.1480   59.3990   69.1230 N   0  0  0  0  0  0  0  0  0  0  0  0
    1.2670   66.8200   69.7270 C   0  0  0  0  0  0  0  0  0  0  0  0
    0.3280   67.2130   68.6200 C   0  0  0  0  0  0  0  0  0  0  0  0
   -0.9700   66.6800   68.5650 C   0  0  0  0  0  0  0  0  0  0  0  0
   -1.8320   67.0240   67.5210 C   0  0  0  0  0  0  0  0  0  0  0  0
   -1.4060   67.9010   66.5260 C   0  0  0  0  0  0  0  0  0  0  0  0
   -0.1230   68.4410   66.5740 C   0  0  0  0  0  0  0  0  0  0  0  0
    0.7410   68.1000   67.6150 C   0  0  0  0  0  0  0  0  0  0  0  0
    1.9353   63.4907   72.7531 H   0  0  0  0  0  0  0  0  0  0  0  0
    3.1447   62.6941   70.7868 H   0  0  0  0  0  0  0  0  0  0  0  0
    1.6129   62.7260   69.8208 H   0  0  0  0  0  0  0  0  0  0  0  0
    3.0211   65.1280   71.0760 H   0  0  0  0  0  0  0  0  0  0  0  0
    2.9538   64.7120   69.3280 H   0  0  0  0  0  0  0  0  0  0  0  0
    0.5748   64.8875   69.4236 H   0  0  0  0  0  0  0  0  0  0  0  0
    0.8216   65.7753   72.2508 H   0  0  0  0  0  0  0  0  0  0  0  0
   -0.6868   65.7928   71.2720 H   0  0  0  0  0  0  0  0  0  0  0  0
   -0.5226   63.7760   72.7292 H   0  0  0  0  0  0  0  0  0  0  0  0
   -0.5483   63.3674   70.9656 H   0  0  0  0  0  0  0  0  0  0  0  0
    1.1597   61.4840   73.3881 H   0  0  0  0  0  0  0  0  0  0  0  0
    0.0764   61.3424   71.9219 H   0  0  0  0  0  0  0  0  0  0  0  0
    2.5728   60.9720   70.8822 H   0  0  0  0  0  0  0  0  0  0  0  0
    3.7700   55.4456   70.6313 H   0  0  0  0  0  0  0  0  0  0  0  0
    1.0812   67.4730   70.5925 H   0  0  0  0  0  0  0  0  0  0  0  0
    2.2920   66.9287   69.3429 H   0  0  0  0  0  0  0  0  0  0  0  0
   -1.3101   65.9873   69.3489 H   0  0  0  0  0  0  0  0  0  0  0  0
   -2.8473   66.6023   67.4846 H   0  0  0  0  0  0  0  0  0  0  0  0
   -2.0837   68.1673   65.7015 H   0  0  0  0  0  0  0  0  0  0  0  0
    0.2095   69.1373   65.7900 H   0  0  0  0  0  0  0  0  0  0  0  0
    1.7531   68.5297   67.6478 H   0  0  0  0  0  0  0  0  0  0  0  0
  2  1  1  0
  3  2  1  0
  4  3  1  0
  5  4  1  0
  6  5  1  0
  6  1  1  0
  7  1  1  0
  9  8  2  0
 10  8  1  0
 10  7  1  0
 12 11  2  0
 12  8  1  0
 13 11  1  0
 14 12  1  0
 15 14  3  0
 16  4  1  0
 17 16  1  0
 18 17  2  0
 19 18  1  0
 20 19  2  0
 21 20  1  0
 22 21  2  0
 22 17  1  0
  1 23  1  0
  2 24  1  0
  2 25  1  0
  3 26  1  0
  3 27  1  0
  4 28  1  0
  5 29  1  0
  5 30  1  0
  6 31  1  0
  6 32  1  0
  7 33  1  0
  7 34  1  0
 10 35  1  0
 13 36  1  0
 16 37  1  0
 16 38  1  0
 18 39  1  0
 19 40  1  0
 20 41  1  0
 21 42  1  0
 22 43  1  0
M  CHG  1   4   1
M  END
>  <score>  (3) 
-7.915

$$$$
=
     RDKit          3D

 43 44  0  0  0  0  0  0  0  0999 V2000
    1.9040   67.9500   66.3980 C   0  0  0  0  0  0  0  0  0  0  0  0
    3.0760   68.8500   65.9830 C   0  0  0  0  0  0  0  0  0  0  0  0
    3.7720   69.4540   67.1980 C   0  0  0  0  0  0  0  0  0  0  0  0
    2.7690   70.2130   68.0340 N   0  0  0  0  0  4  0  0  0  0  0  0
    1.6230   69.3430   68.4840 C   0  0  0  0  0  0  0  0  0  0  0  0
    0.9240   68.7440   67.2690 C   0  0  0  0  0  0  0  0  0  0  0  0
    1.1800   67.3430   65.1840 C   0  0  0  0  0  0  0  0  0  0  0  0
    1.7390   68.3180   62.9780 C   0  0  0  0  0  0  0  0  0  0  0  0
    0.7640   69.0510   62.9260 O   0  0  0  0  0  0  0  0  0  0  0  0
    1.9620   67.3720   63.9660 N   0  0  0  0  0  0  0  0  0  0  0  0
    2.6300   69.1770   60.8860 N   0  0  0  0  0  0  0  0  0  0  0  0
    2.8180   68.3930   61.9150 C   0  0  0  0  0  0  0  0  0  0  0  0
    3.7090   69.1610   59.9910 O   0  0  0  0  0  0  0  0  0  0  0  0
    4.0440   67.6370   62.0360 C   0  0  0  0  0  0  0  0  0  0  0  0
    5.0460   67.0580   62.1480 N   0  0  0  0  0  0  0  0  0  0  0  0
    3.4170   70.9120   69.2170 C   0  0  0  0  0  0  0  0  0  0  0  0
    4.9190   70.9040   69.1540 C   0  0  0  0  0  0  0  0  0  0  0  0
    5.6760   70.4660   70.2520 C   0  0  0  0  0  0  0  0  0  0  0  0
    7.0710   70.4840   70.2020 C   0  0  0  0  0  0  0  0  0  0  0  0
    7.7220   70.9390   69.0580 C   0  0  0  0  0  0  0  0  0  0  0  0
    6.9810   71.3700   67.9590 C   0  0  0  0  0  0  0  0  0  0  0  0
    5.5870   71.3540   68.0050 C   0  0  0  0  0  0  0  0  0  0  0  0
    2.3137   67.1106   66.9790 H   0  0  0  0  0  0  0  0  0  0  0  0
    3.8032   68.2512   65.4151 H   0  0  0  0  0  0  0  0  0  0  0  0
    2.6803   69.6712   65.3673 H   0  0  0  0  0  0  0  0  0  0  0  0
    4.2172   68.6495   67.8019 H   0  0  0  0  0  0  0  0  0  0  0  0
    4.5608   70.1426   66.8611 H   0  0  0  0  0  0  0  0  0  0  0  0
    2.3804   70.9415   67.4182 H   0  0  0  0  0  0  0  0  0  0  0  0
    2.0074   68.5327   69.1209 H   0  0  0  0  0  0  0  0  0  0  0  0
    0.9054   69.9520   69.0533 H   0  0  0  0  0  0  0  0  0  0  0  0
    0.1233   68.0719   67.6114 H   0  0  0  0  0  0  0  0  0  0  0  0
    0.5108   69.5659   66.6659 H   0  0  0  0  0  0  0  0  0  0  0  0
    0.9342   66.2958   65.4141 H   0  0  0  0  0  0  0  0  0  0  0  0
    0.2835   67.9549   65.0052 H   0  0  0  0  0  0  0  0  0  0  0  0
    2.7040   66.6707   63.8300 H   0  0  0  0  0  0  0  0  0  0  0  0
    3.6811   69.7166   59.1721 H   0  0  0  0  0  0  0  0  0  0  0  0
    3.0727   71.9565   69.2384 H   0  0  0  0  0  0  0  0  0  0  0  0
    3.1230   70.3638   70.1242 H   0  0  0  0  0  0  0  0  0  0  0  0
    5.1665   70.1061   71.1580 H   0  0  0  0  0  0  0  0  0  0  0  0
    7.6564   70.1385   71.0668 H   0  0  0  0  0  0  0  0  0  0  0  0
    8.8212   70.9582   69.0218 H   0  0  0  0  0  0  0  0  0  0  0  0
    7.4964   71.7234   67.0538 H   0  0  0  0  0  0  0  0  0  0  0  0
    5.0076   71.6964   67.1349 H   0  0  0  0  0  0  0  0  0  0  0  0
  2  1  1  0
  3  2  1  0
  4  3  1  0
  5  4  1  0
  6  5  1  0
  6  1  1  0
  7  1  1  0
  9  8  2  0
 10  8  1  0
 10  7  1  0
 12 11  2  0
 12  8  1  0
 13 11  1  0
 14 12  1  0
 15 14  3  0
 16  4  1  0
 17 16  1  0
 18 17  2  0
 19 18  1  0
 20 19  2  0
 21 20  1  0
 22 21  2  0
 22 17  1  0
  1 23  1  0
  2 24  1  0
  2 25  1  0
  3 26  1  0
  3 27  1  0
  4 28  1  0
  5 29  1  0
  5 30  1  0
  6 31  1  0
  6 32  1  0
  7 33  1  0
  7 34  1  0
 10 35  1  0
 13 36  1  0
 16 37  1  0
 16 38  1  0
 18 39  1  0
 19 40  1  0
 20 41  1  0
 21 42  1  0
 22 43  1  0
M  CHG  1   4   1
M  END
>  <score>  (4) 
-7.871

$$$$
=
     RDKit          3D

 43 44  0  0  0  0  0  0  0  0999 V2000
    1.3370   64.9920   70.6520 C   0  0  0  0  0  0  0  0  0  0  0  0
    0.1720   64.0340   70.3690 C   0  0  0  0  0  0  0  0  0  0  0  0
    0.0250   62.9940   71.4730 C   0  0  0  0  0  0  0  0  0  0  0  0
    1.3230   62.2400   71.6390 N   0  0  0  0  0  4  0  0  0  0  0  0
    2.4810   63.1540   71.9510 C   0  0  0  0  0  0  0  0  0  0  0  0
    2.6300   64.1910   70.8440 C   0  0  0  0  0  0  0  0  0  0  0  0
    1.5100   66.0410   69.5410 C   0  0  0  0  0  0  0  0  0  0  0  0
    0.2100   67.5880   68.1110 C   0  0  0  0  0  0  0  0  0  0  0  0
    1.1440   68.3390   67.8760 O   0  0  0  0  0  0  0  0  0  0  0  0
    0.2580   66.5240   68.9980 N   0  0  0  0  0  0  0  0  0  0  0  0
   -2.2180   67.4690   68.0720 N   0  0  0  0  0  0  0  0  0  0  0  0
   -1.1260   67.7800   67.4210 C   0  0  0  0  0  0  0  0  0  0  0  0
   -3.3790   67.7080   67.3230 O   0  0  0  0  0  0  0  0  0  0  0  0
   -1.2080   68.3150   66.0820 C   0  0  0  0  0  0  0  0  0  0  0  0
   -1.2800   68.7800   65.0170 N   0  0  0  0  0  0  0  0  0  0  0  0
    1.2170   61.1270   72.6670 C   0  0  0  0  0  0  0  0  0  0  0  0
    1.8670   59.8480   72.2180 C   0  0  0  0  0  0  0  0  0  0  0  0
    2.8100   59.8550   71.1780 C   0  0  0  0  0  0  0  0  0  0  0  0
    3.3930   58.6630   70.7440 C   0  0  0  0  0  0  0  0  0  0  0  0
    3.0410   57.4560   71.3430 C   0  0  0  0  0  0  0  0  0  0  0  0
    2.1110   57.4370   72.3800 C   0  0  0  0  0  0  0  0  0  0  0  0
    1.5260   58.6260   72.8170 C   0  0  0  0  0  0  0  0  0  0  0  0
    1.1044   65.5413   71.5762 H   0  0  0  0  0  0  0  0  0  0  0  0
   -0.7595   64.6147   70.2984 H   0  0  0  0  0  0  0  0  0  0  0  0
    0.3779   63.5089   69.4246 H   0  0  0  0  0  0  0  0  0  0  0  0
   -0.2289   63.4971   72.4177 H   0  0  0  0  0  0  0  0  0  0  0  0
   -0.7743   62.2879   71.2038 H   0  0  0  0  0  0  0  0  0  0  0  0
    1.5131   61.8008   70.7269 H   0  0  0  0  0  0  0  0  0  0  0  0
    2.2964   63.6645   72.9077 H   0  0  0  0  0  0  0  0  0  0  0  0
    3.4046   62.5607   72.0210 H   0  0  0  0  0  0  0  0  0  0  0  0
    3.4437   64.8824   71.1081 H   0  0  0  0  0  0  0  0  0  0  0  0
    2.8550   63.6652   69.9043 H   0  0  0  0  0  0  0  0  0  0  0  0
    2.0627   66.8974   69.9547 H   0  0  0  0  0  0  0  0  0  0  0  0
    2.0506   65.5515   68.7175 H   0  0  0  0  0  0  0  0  0  0  0  0
   -0.6204   66.0648   69.2782 H   0  0  0  0  0  0  0  0  0  0  0  0
   -4.2680   67.5108   67.7114 H   0  0  0  0  0  0  0  0  0  0  0  0
    1.7036   61.4602   73.5956 H   0  0  0  0  0  0  0  0  0  0  0  0
    0.1474   60.9176   72.8157 H   0  0  0  0  0  0  0  0  0  0  0  0
    3.0914   60.8059   70.7020 H   0  0  0  0  0  0  0  0  0  0  0  0
    4.1309   58.6772   69.9283 H   0  0  0  0  0  0  0  0  0  0  0  0
    3.4977   56.5170   70.9970 H   0  0  0  0  0  0  0  0  0  0  0  0
    1.8374   56.4833   72.8550 H   0  0  0  0  0  0  0  0  0  0  0  0
    0.7926   58.6051   73.6366 H   0  0  0  0  0  0  0  0  0  0  0  0
  2  1  1  0
  3  2  1  0
  4  3  1  0
  5  4  1  0
  6  5  1  0
  6  1  1  0
  7  1  1  0
  9  8  2  0
 10  8  1  0
 10  7  1  0
 12 11  2  0
 12  8  1  0
 13 11  1  0
 14 12  1  0
 15 14  3  0
 16  4  1  0
 17 16  1  0
 18 17  2  0
 19 18  1  0
 20 19  2  0
 21 20  1  0
 22 21  2  0
 22 17  1  0
  1 23  1  0
  2 24  1  0
  2 25  1  0
  3 26  1  0
  3 27  1  0
  4 28  1  0
  5 29  1  0
  5 30  1  0
  6 31  1  0
  6 32  1  0
  7 33  1  0
  7 34  1  0
 10 35  1  0
 13 36  1  0
 16 37  1  0
 16 38  1  0
 18 39  1  0
 19 40  1  0
 20 41  1  0
 21 42  1  0
 22 43  1  0
M  CHG  1   4   1
M  END
>  <score>  (5) 
-7.694

$$$$
=
     RDKit          3D

 43 44  0  0  0  0  0  0  0  0999 V2000
    0.6790   65.4370   70.8560 C   0  0  0  0  0  0  0  0  0  0  0  0
    0.1140   64.2470   71.6430 C   0  0  0  0  0  0  0  0  0  0  0  0
    1.2150   63.4950   72.3820 C   0  0  0  0  0  0  0  0  0  0  0  0
    2.2730   63.0480   71.4020 N   0  0  0  0  0  4  0  0  0  0  0  0
    2.8700   64.2030   70.6370 C   0  0  0  0  0  0  0  0  0  0  0  0
    1.7700   64.9510   69.8950 C   0  0  0  0  0  0  0  0  0  0  0  0
   -0.4160   66.2010   70.0920 C   0  0  0  0  0  0  0  0  0  0  0  0
   -0.9970   67.0310   67.8330 C   0  0  0  0  0  0  0  0  0  0  0  0
   -2.1890   67.1630   68.0630 O   0  0  0  0  0  0  0  0  0  0  0  0
   -0.0850   66.4610   68.7070 N   0  0  0  0  0  0  0  0  0  0  0  0
   -1.1380   68.2570   65.7390 N   0  0  0  0  0  0  0  0  0  0  0  0
   -0.4090   67.4990   66.5170 C   0  0  0  0  0  0  0  0  0  0  0  0
   -0.4680   68.6270   64.5640 O   0  0  0  0  0  0  0  0  0  0  0  0
    0.9360   67.1420   66.1280 C   0  0  0  0  0  0  0  0  0  0  0  0
    2.0050   66.8340   65.7890 N   0  0  0  0  0  0  0  0  0  0  0  0
    3.3580   62.2160   72.0640 C   0  0  0  0  0  0  0  0  0  0  0  0
    3.3600   60.7830   71.6070 C   0  0  0  0  0  0  0  0  0  0  0  0
    3.2670   59.7380   72.5400 C   0  0  0  0  0  0  0  0  0  0  0  0
    3.2970   58.4080   72.1160 C   0  0  0  0  0  0  0  0  0  0  0  0
    3.4200   58.1100   70.7620 C   0  0  0  0  0  0  0  0  0  0  0  0
    3.5070   59.1390   69.8260 C   0  0  0  0  0  0  0  0  0  0  0  0
    3.4770   60.4690   70.2440 C   0  0  0  0  0  0  0  0  0  0  0  0
    1.1150   66.1423   71.5788 H   0  0  0  0  0  0  0  0  0  0  0  0
   -0.6193   64.6175   72.3745 H   0  0  0  0  0  0  0  0  0  0  0  0
   -0.3598   63.5551   70.9311 H   0  0  0  0  0  0  0  0  0  0  0  0
    1.6693   64.1576   73.1334 H   0  0  0  0  0  0  0  0  0  0  0  0
    0.7834   62.6136   72.8789 H   0  0  0  0  0  0  0  0  0  0  0  0
    1.7912   62.4429   70.7218 H   0  0  0  0  0  0  0  0  0  0  0  0
    3.3684   64.8878   71.3389 H   0  0  0  0  0  0  0  0  0  0  0  0
    3.6027   63.8195   69.9117 H   0  0  0  0  0  0  0  0  0  0  0  0
    2.2099   65.8200   69.3838 H   0  0  0  0  0  0  0  0  0  0  0  0
    1.3115   64.2629   69.1696 H   0  0  0  0  0  0  0  0  0  0  0  0
   -1.3405   65.6057   70.1224 H   0  0  0  0  0  0  0  0  0  0  0  0
   -0.5298   67.1780   70.5844 H   0  0  0  0  0  0  0  0  0  0  0  0
    0.8539   66.2157   68.3617 H   0  0  0  0  0  0  0  0  0  0  0  0
   -0.9200   69.2015   63.8964 H   0  0  0  0  0  0  0  0  0  0  0  0
    4.3354   62.6612   71.8263 H   0  0  0  0  0  0  0  0  0  0  0  0
    3.1592   62.2163   73.1459 H   0  0  0  0  0  0  0  0  0  0  0  0
    3.1699   59.9684   73.6112 H   0  0  0  0  0  0  0  0  0  0  0  0
    3.2233   57.5947   72.8530 H   0  0  0  0  0  0  0  0  0  0  0  0
    3.4486   57.0616   70.4304 H   0  0  0  0  0  0  0  0  0  0  0  0
    3.5995   58.9016   68.7559 H   0  0  0  0  0  0  0  0  0  0  0  0
    3.5455   61.2771   69.5009 H   0  0  0  0  0  0  0  0  0  0  0  0
  2  1  1  0
  3  2  1  0
  4  3  1  0
  5  4  1  0
  6  5  1  0
  6  1  1  0
  7  1  1  0
  9  8  2  0
 10  8  1  0
 10  7  1  0
 12 11  2  0
 12  8  1  0
 13 11  1  0
 14 12  1  0
 15 14  3  0
 16  4  1  0
 17 16  1  0
 18 17  2  0
 19 18  1  0
 20 19  2  0
 21 20  1  0
 22 21  2  0
 22 17  1  0
  1 23  1  0
  2 24  1  0
  2 25  1  0
  3 26  1  0
  3 27  1  0
  4 28  1  0
  5 29  1  0
  5 30  1  0
  6 31  1  0
  6 32  1  0
  7 33  1  0
  7 34  1  0
 10 35  1  0
 13 36  1  0
 16 37  1  0
 16 38  1  0
 18 39  1  0
 19 40  1  0
 20 41  1  0
 21 42  1  0
 22 43  1  0
M  CHG  1   4   1
M  END
>  <score>  (6) 
-7.586

$$$$
=
     RDKit          3D

 43 44  0  0  0  0  0  0  0  0999 V2000
    0.0690   66.0600   69.9730 C   0  0  0  0  0  0  0  0  0  0  0  0
    1.5740   66.3540   69.9190 C   0  0  0  0  0  0  0  0  0  0  0  0
    1.8480   67.7750   69.4430 C   0  0  0  0  0  0  0  0  0  0  0  0
    1.2000   67.9950   68.0960 N   0  0  0  0  0  4  0  0  0  0  0  0
   -0.2860   67.7460   68.1280 C   0  0  0  0  0  0  0  0  0  0  0  0
   -0.5590   66.3230   68.5990 C   0  0  0  0  0  0  0  0  0  0  0  0
   -0.2270   64.6240   70.4380 C   0  0  0  0  0  0  0  0  0  0  0  0
    1.3070   62.8580   71.2460 C   0  0  0  0  0  0  0  0  0  0  0  0
    0.9670   62.9360   72.4160 O   0  0  0  0  0  0  0  0  0  0  0  0
    0.8780   63.7110   70.2420 N   0  0  0  0  0  0  0  0  0  0  0  0
    2.3220   60.6610   71.4750 N   0  0  0  0  0  0  0  0  0  0  0  0
    2.2680   61.7760   70.7940 C   0  0  0  0  0  0  0  0  0  0  0  0
    3.2400   59.7450   70.9410 O   0  0  0  0  0  0  0  0  0  0  0  0
    3.0960   61.9510   69.6230 C   0  0  0  0  0  0  0  0  0  0  0  0
    3.7920   62.0950   68.7010 N   0  0  0  0  0  0  0  0  0  0  0  0
    1.5090   69.3680   67.5240 C   0  0  0  0  0  0  0  0  0  0  0  0
    2.8470   69.4330   66.8410 C   0  0  0  0  0  0  0  0  0  0  0  0
    2.9890   69.0030   65.5120 C   0  0  0  0  0  0  0  0  0  0  0  0
    4.2370   69.0390   64.8880 C   0  0  0  0  0  0  0  0  0  0  0  0
    5.3520   69.5030   65.5820 C   0  0  0  0  0  0  0  0  0  0  0  0
    5.2220   69.9380   66.8990 C   0  0  0  0  0  0  0  0  0  0  0  0
    3.9760   69.9040   67.5270 C   0  0  0  0  0  0  0  0  0  0  0  0
   -0.3792   66.7349   70.7170 H   0  0  0  0  0  0  0  0  0  0  0  0
    1.9997   66.2256   70.9251 H   0  0  0  0  0  0  0  0  0  0  0  0
    2.0369   65.6557   69.2062 H   0  0  0  0  0  0  0  0  0  0  0  0
    1.4338   68.4900   70.1691 H   0  0  0  0  0  0  0  0  0  0  0  0
    2.9339   67.9261   69.3537 H   0  0  0  0  0  0  0  0  0  0  0  0
    1.6168   67.2964   67.4642 H   0  0  0  0  0  0  0  0  0  0  0  0
   -0.7610   68.4574   68.8196 H   0  0  0  0  0  0  0  0  0  0  0  0
   -0.6994   67.8805   67.1176 H   0  0  0  0  0  0  0  0  0  0  0  0
   -1.6463   66.1706   68.6670 H   0  0  0  0  0  0  0  0  0  0  0  0
   -0.1126   65.6261   67.8744 H   0  0  0  0  0  0  0  0  0  0  0  0
   -0.4709   64.6493   71.5103 H   0  0  0  0  0  0  0  0  0  0  0  0
   -1.0631   64.2535   69.8267 H   0  0  0  0  0  0  0  0  0  0  0  0
    1.3589   63.6947   69.3313 H   0  0  0  0  0  0  0  0  0  0  0  0
    3.3678   58.8634   71.3729 H   0  0  0  0  0  0  0  0  0  0  0  0
    0.7292   69.6265   66.7925 H   0  0  0  0  0  0  0  0  0  0  0  0
    1.5344   70.0765   68.3651 H   0  0  0  0  0  0  0  0  0  0  0  0
    2.1117   68.6356   64.9594 H   0  0  0  0  0  0  0  0  0  0  0  0
    4.3402   68.7004   63.8465 H   0  0  0  0  0  0  0  0  0  0  0  0
    6.3355   69.5260   65.0899 H   0  0  0  0  0  0  0  0  0  0  0  0
    6.1023   70.3087   67.4446 H   0  0  0  0  0  0  0  0  0  0  0  0
    3.8788   70.2489   68.5670 H   0  0  0  0  0  0  0  0  0  0  0  0
  2  1  1  0
  3  2  1  0
  4  3  1  0
  5  4  1  0
  6  5  1  0
  6  1  1  0
  7  1  1  0
  9  8  2  0
 10  8  1  0
 10  7  1  0
 12 11  2  0
 12  8  1  0
 13 11  1  0
 14 12  1  0
 15 14  3  0
 16  4  1  0
 17 16  1  0
 18 17  2  0
 19 18  1  0
 20 19  2  0
 21 20  1  0
 22 21  2  0
 22 17  1  0
  1 23  1  0
  2 24  1  0
  2 25  1  0
  3 26  1  0
  3 27  1  0
  4 28  1  0
  5 29  1  0
  5 30  1  0
  6 31  1  0
  6 32  1  0
  7 33  1  0
  7 34  1  0
 10 35  1  0
 13 36  1  0
 16 37  1  0
 16 38  1  0
 18 39  1  0
 19 40  1  0
 20 41  1  0
 21 42  1  0
 22 43  1  0
M  CHG  1   4   1
M  END
>  <score>  (7) 
-7.576

$$$$
=
     RDKit          3D

 43 44  0  0  0  0  0  0  0  0999 V2000
   -0.0870   67.0570   69.2260 C   0  0  0  0  0  0  0  0  0  0  0  0
    1.1370   67.5050   68.4160 C   0  0  0  0  0  0  0  0  0  0  0  0
    0.7540   68.5180   67.3430 C   0  0  0  0  0  0  0  0  0  0  0  0
   -0.3110   67.9310   66.4460 N   0  0  0  0  0  4  0  0  0  0  0  0
   -1.5390   67.5130   67.2130 C   0  0  0  0  0  0  0  0  0  0  0  0
   -1.1570   66.4970   68.2820 C   0  0  0  0  0  0  0  0  0  0  0  0
    0.2780   66.0240   70.3060 C   0  0  0  0  0  0  0  0  0  0  0  0
    1.6560   64.0010   70.6740 C   0  0  0  0  0  0  0  0  0  0  0  0
    1.3180   63.8420   71.8370 O   0  0  0  0  0  0  0  0  0  0  0  0
    1.3040   65.0900   69.8930 N   0  0  0  0  0  0  0  0  0  0  0  0
    3.1490   63.3200   68.8810 N   0  0  0  0  0  0  0  0  0  0  0  0
    2.5250   62.9730   69.9770 C   0  0  0  0  0  0  0  0  0  0  0  0
    3.9260   62.2810   68.3500 O   0  0  0  0  0  0  0  0  0  0  0  0
    2.6890   61.6410   70.5130 C   0  0  0  0  0  0  0  0  0  0  0  0
    2.8020   60.5560   70.9160 N   0  0  0  0  0  0  0  0  0  0  0  0
   -0.6760   68.8600   65.3010 C   0  0  0  0  0  0  0  0  0  0  0  0
    0.3080   68.8070   64.1640 C   0  0  0  0  0  0  0  0  0  0  0  0
    1.6370   68.4130   64.3910 C   0  0  0  0  0  0  0  0  0  0  0  0
    2.5560   68.3890   63.3400 C   0  0  0  0  0  0  0  0  0  0  0  0
    2.1580   68.7580   62.0570 C   0  0  0  0  0  0  0  0  0  0  0  0
    0.8410   69.1450   61.8190 C   0  0  0  0  0  0  0  0  0  0  0  0
   -0.0810   69.1700   62.8660 C   0  0  0  0  0  0  0  0  0  0  0  0
   -0.4857   67.9388   69.7489 H   0  0  0  0  0  0  0  0  0  0  0  0
    1.8682   67.9646   69.0972 H   0  0  0  0  0  0  0  0  0  0  0  0
    1.5663   66.6217   67.9205 H   0  0  0  0  0  0  0  0  0  0  0  0
    0.3671   69.4295   67.8220 H   0  0  0  0  0  0  0  0  0  0  0  0
    1.6414   68.7651   66.7417 H   0  0  0  0  0  0  0  0  0  0  0  0
    0.1012   67.0809   66.0357 H   0  0  0  0  0  0  0  0  0  0  0  0
   -1.9889   68.3954   67.6916 H   0  0  0  0  0  0  0  0  0  0  0  0
   -2.2629   67.0581   66.5209 H   0  0  0  0  0  0  0  0  0  0  0  0
   -2.0519   66.2393   68.8675 H   0  0  0  0  0  0  0  0  0  0  0  0
   -0.7480   65.6058   67.7835 H   0  0  0  0  0  0  0  0  0  0  0  0
    0.6363   66.5630   71.1955 H   0  0  0  0  0  0  0  0  0  0  0  0
   -0.6294   65.4364   70.5094 H   0  0  0  0  0  0  0  0  0  0  0  0
    1.7852   65.2390   68.9946 H   0  0  0  0  0  0  0  0  0  0  0  0
    4.4452   62.4258   67.5196 H   0  0  0  0  0  0  0  0  0  0  0  0
   -1.6675   68.5740   64.9200 H   0  0  0  0  0  0  0  0  0  0  0  0
   -0.6680   69.8869   65.6953 H   0  0  0  0  0  0  0  0  0  0  0  0
    1.9557   68.1216   65.4027 H   0  0  0  0  0  0  0  0  0  0  0  0
    3.5949   68.0785   63.5252 H   0  0  0  0  0  0  0  0  0  0  0  0
    2.8843   68.7438   61.2310 H   0  0  0  0  0  0  0  0  0  0  0  0
    0.5275   69.4313   60.8042 H   0  0  0  0  0  0  0  0  0  0  0  0
   -1.1196   69.4763   62.6723 H   0  0  0  0  0  0  0  0  0  0  0  0
  2  1  1  0
  3  2  1  0
  4  3  1  0
  5  4  1  0
  6  5  1  0
  6  1  1  0
  7  1  1  0
  9  8  2  0
 10  8  1  0
 10  7  1  0
 12 11  2  0
 12  8  1  0
 13 11  1  0
 14 12  1  0
 15 14  3  0
 16  4  1  0
 17 16  1  0
 18 17  2  0
 19 18  1  0
 20 19  2  0
 21 20  1  0
 22 21  2  0
 22 17  1  0
  1 23  1  0
  2 24  1  0
  2 25  1  0
  3 26  1  0
  3 27  1  0
  4 28  1  0
  5 29  1  0
  5 30  1  0
  6 31  1  0
  6 32  1  0
  7 33  1  0
  7 34  1  0
 10 35  1  0
 13 36  1  0
 16 37  1  0
 16 38  1  0
 18 39  1  0
 19 40  1  0
 20 41  1  0
 21 42  1  0
 22 43  1  0
M  CHG  1   4   1
M  END
>  <score>  (8) 
-7.547

$$$$
=
     RDKit          3D

 43 44  0  0  0  0  0  0  0  0999 V2000
    0.3490   68.1230   67.4120 C   0  0  0  0  0  0  0  0  0  0  0  0
   -0.6780   66.9850   67.3550 C   0  0  0  0  0  0  0  0  0  0  0  0
   -1.0550   66.5040   68.7520 C   0  0  0  0  0  0  0  0  0  0  0  0
    0.1890   66.0810   69.4970 N   0  0  0  0  0  4  0  0  0  0  0  0
    1.2030   67.1920   69.5970 C   0  0  0  0  0  0  0  0  0  0  0  0
    1.5830   67.6680   68.2010 C   0  0  0  0  0  0  0  0  0  0  0  0
    0.7520   68.6120   66.0100 C   0  0  0  0  0  0  0  0  0  0  0  0
    2.7340   68.9460   64.5660 C   0  0  0  0  0  0  0  0  0  0  0  0
    2.1170   68.9070   63.5130 O   0  0  0  0  0  0  0  0  0  0  0  0
    2.1840   68.6930   65.8120 N   0  0  0  0  0  0  0  0  0  0  0  0
    4.7390   69.7420   65.6880 N   0  0  0  0  0  0  0  0  0  0  0  0
    4.2120   69.2850   64.5810 C   0  0  0  0  0  0  0  0  0  0  0  0
    6.1110   70.0000   65.5660 O   0  0  0  0  0  0  0  0  0  0  0  0
    5.0380   69.0910   63.4120 C   0  0  0  0  0  0  0  0  0  0  0  0
    5.6860   68.9030   62.4640 N   0  0  0  0  0  0  0  0  0  0  0  0
   -0.1270   65.5090   70.8680 C   0  0  0  0  0  0  0  0  0  0  0  0
    0.6770   64.2800   71.1920 C   0  0  0  0  0  0  0  0  0  0  0  0
    0.7490   63.8040   72.5110 C   0  0  0  0  0  0  0  0  0  0  0  0
    1.5180   62.6780   72.8150 C   0  0  0  0  0  0  0  0  0  0  0  0
    2.2190   62.0200   71.8080 C   0  0  0  0  0  0  0  0  0  0  0  0
    2.1490   62.4790   70.4940 C   0  0  0  0  0  0  0  0  0  0  0  0
    1.3830   63.6040   70.1860 C   0  0  0  0  0  0  0  0  0  0  0  0
   -0.1204   68.9752   67.9252 H   0  0  0  0  0  0  0  0  0  0  0  0
   -1.5832   67.3453   66.8443 H   0  0  0  0  0  0  0  0  0  0  0  0
   -0.2301   66.1421   66.8082 H   0  0  0  0  0  0  0  0  0  0  0  0
   -1.5491   67.3205   69.2990 H   0  0  0  0  0  0  0  0  0  0  0  0
   -1.7399   65.6472   68.6701 H   0  0  0  0  0  0  0  0  0  0  0  0
    0.6117   65.3270   68.9368 H   0  0  0  0  0  0  0  0  0  0  0  0
    0.7722   68.0302   70.1644 H   0  0  0  0  0  0  0  0  0  0  0  0
    2.1011   66.8200   70.1119 H   0  0  0  0  0  0  0  0  0  0  0  0
    2.2835   68.5116   68.2884 H   0  0  0  0  0  0  0  0  0  0  0  0
    2.0490   66.8292   67.6632 H   0  0  0  0  0  0  0  0  0  0  0  0
    0.3373   67.9153   65.2666 H   0  0  0  0  0  0  0  0  0  0  0  0
    0.3534   69.6311   65.8977 H   0  0  0  0  0  0  0  0  0  0  0  0
    2.8102   68.5590   66.6187 H   0  0  0  0  0  0  0  0  0  0  0  0
    6.6196   70.3497   66.3400 H   0  0  0  0  0  0  0  0  0  0  0  0
    0.0863   66.2772   71.6259 H   0  0  0  0  0  0  0  0  0  0  0  0
   -1.1876   65.2171   70.8661 H   0  0  0  0  0  0  0  0  0  0  0  0
    0.1966   64.3207   73.3097 H   0  0  0  0  0  0  0  0  0  0  0  0
    1.5697   62.3110   73.8507 H   0  0  0  0  0  0  0  0  0  0  0  0
    2.8287   61.1369   72.0498 H   0  0  0  0  0  0  0  0  0  0  0  0
    2.6982   61.9538   69.6987 H   0  0  0  0  0  0  0  0  0  0  0  0
    1.3325   63.9630   69.1475 H   0  0  0  0  0  0  0  0  0  0  0  0
  2  1  1  0
  3  2  1  0
  4  3  1  0
  5  4  1  0
  6  5  1  0
  6  1  1  0
  7  1  1  0
  9  8  2  0
 10  8  1  0
 10  7  1  0
 12 11  2  0
 12  8  1  0
 13 11  1  0
 14 12  1  0
 15 14  3  0
 16  4  1  0
 17 16  1  0
 18 17  2  0
 19 18  1  0
 20 19  2  0
 21 20  1  0
 22 21  2  0
 22 17  1  0
  1 23  1  0
  2 24  1  0
  2 25  1  0
  3 26  1  0
  3 27  1  0
  4 28  1  0
  5 29  1  0
  5 30  1  0
  6 31  1  0
  6 32  1  0
  7 33  1  0
  7 34  1  0
 10 35  1  0
 13 36  1  0
 16 37  1  0
 16 38  1  0
 18 39  1  0
 19 40  1  0
 20 41  1  0
 21 42  1  0
 22 43  1  0
M  CHG  1   4   1
M  END
>  <score>  (9) 
-7.344

$$$$
