=
     RDKit          3D

117123  0  0  0  0  0  0  0  0999 V2000
   -4.1210   62.7490   78.2060 C   0  0  1  0  0  0  0  0  0  0  0  0
   -2.9980   63.7870   78.1890 C   0  0  0  0  0  0  0  0  0  0  0  0
   -1.9490   63.5150   77.1080 C   0  0  0  0  0  0  0  0  0  0  0  0
   -1.3060   62.0930   77.1710 C   0  0  1  0  0  0  0  0  0  0  0  0
   -2.5020   61.0630   77.1900 C   0  0  2  0  0  0  0  0  0  0  0  0
   -3.5910   61.2850   78.3060 C   0  0  0  0  0  0  0  0  0  0  0  0
   -3.1040   60.9550   79.7330 C   0  0  0  0  0  0  0  0  0  0  0  0
   -4.8080   60.3510   78.0500 C   0  0  0  0  0  0  0  0  0  0  0  0
   -1.9970   59.6130   77.0700 C   0  0  0  0  0  0  0  0  0  0  0  0
   -1.2530   59.4040   75.7510 C   0  0  0  0  0  0  0  0  0  0  0  0
   -0.0390   60.3470   75.5450 C   0  0  2  0  0  0  0  0  0  0  0  0
   -0.4580   61.8370   75.8430 C   0  0  2  0  0  0  0  0  0  0  0  0
    0.7680   62.7480   75.6430 C   0  0  0  0  0  0  0  0  0  0  0  0
    0.9600   63.7900   76.2670 O   0  0  0  0  0  0  0  0  0  0  0  0
    1.7700   62.3730   74.6060 C   0  0  0  0  0  0  0  0  0  0  0  0
    1.6900   61.2560   73.8560 C   0  0  0  0  0  0  0  0  0  0  0  0
    0.5180   60.2680   74.0150 C   0  0  2  0  0  0  0  0  0  0  0  0
   -0.5630   60.7060   72.9780 C   0  0  0  0  0  0  0  0  0  0  0  0
    0.9080   58.8030   73.6490 C   0  0  0  0  0  0  0  0  0  0  0  0
    1.8680   58.6680   72.4670 C   0  0  0  0  0  0  0  0  0  0  0  0
    3.1560   59.5010   72.6490 C   0  0  2  0  0  0  0  0  0  0  0  0
    2.7880   61.0050   72.8050 C   0  0  1  0  0  0  0  0  0  0  0  0
    2.4260   61.6930   71.4670 C   0  0  0  0  0  0  0  0  0  0  0  0
    3.4510   61.4550   70.3420 C   0  0  2  0  0  0  0  0  0  0  0  0
    2.9280   62.0800   69.0380 C   0  0  0  0  0  0  0  0  0  0  0  0
    3.6440   59.9460   70.1480 C   0  0  0  0  0  0  0  0  0  0  0  0
    4.1000   59.2720   71.4400 C   0  0  0  0  0  0  0  0  0  0  0  0
    3.9280   59.0150   73.9020 C   0  0  0  0  0  0  0  0  0  0  0  0
    1.0660   59.8690   76.5440 C   0  0  0  0  0  0  0  0  0  0  0  0
   -0.4100   62.0170   78.4320 C   0  0  0  0  0  0  0  0  0  0  0  0
    4.8140   62.1820   70.5460 C   0  0  0  0  0  0  0  0  0  0  0  0
    4.8720   63.3720   70.1180 O   0  0  0  0  0  0  0  0  0  0  0  0
    5.7160   61.5130   71.1240 O   0  0  0  0  0  1  0  0  0  0  0  0
   -4.9700   63.0200   79.3290 O   0  0  0  0  0  0  0  0  0  0  0  0
   -8.3850   64.4170   78.5870 C   0  0  2  0  0  0  0  0  0  0  0  0
   -6.8590   64.2970   78.4270 C   0  0  2  0  0  0  0  0  0  0  0  0
   -6.3610   62.9440   79.0210 C   0  0  2  0  0  0  0  0  0  0  0  0
   -7.1360   62.5960   80.1690 O   0  0  0  0  0  0  0  0  0  0  0  0
   -8.5050   62.2680   79.8330 C   0  0  1  0  0  0  0  0  0  0  0  0
   -9.0500   63.0460   78.6270 C   0  0  1  0  0  0  0  0  0  0  0  0
   -8.7240   60.7950   79.4110 C   0  0  0  0  0  0  0  0  0  0  0  0
   -9.5600   60.6630   78.4580 O   0  0  0  0  0  0  0  0  0  0  0  0
   -8.0340   59.9120   79.9870 O   0  0  0  0  0  1  0  0  0  0  0  0
   -8.9310   65.1910   77.4970 O   0  0  0  0  0  0  0  0  0  0  0  0
  -10.4790   63.2070   78.7090 O   0  0  0  0  0  0  0  0  0  0  0  0
   -6.3330   65.4900   79.0450 O   0  0  0  0  0  0  0  0  0  0  0  0
   -6.7690   66.7310   78.5100 C   0  0  2  0  0  0  0  0  0  0  0  0
   -6.3390   66.8520   77.1410 O   0  0  0  0  0  0  0  0  0  0  0  0
   -4.9360   67.1780   76.9410 C   0  0  1  0  0  0  0  0  0  0  0  0
   -4.0910   67.1440   78.2240 C   0  0  2  0  0  0  0  0  0  0  0  0
   -4.7370   68.0500   79.2900 C   0  0  1  0  0  0  0  0  0  0  0  0
   -6.2760   67.9860   79.2680 C   0  0  1  0  0  0  0  0  0  0  0  0
   -4.3080   66.3080   75.8080 C   0  0  0  0  0  0  0  0  0  0  0  0
   -3.2930   66.8160   75.2330 O   0  0  0  0  0  0  0  0  0  0  0  0
   -4.9300   65.2510   75.4970 O   0  0  0  0  0  1  0  0  0  0  0  0
   -6.8010   69.1690   78.6140 O   0  0  0  0  0  0  0  0  0  0  0  0
   -4.2460   67.7360   80.6090 O   0  0  0  0  0  0  0  0  0  0  0  0
   -2.7480   67.6040   77.9780 O   0  0  0  0  0  0  0  0  0  0  0  0
   -4.6687   62.8292   77.2554 H   0  0  0  0  0  0  0  0  0  0  0  0
   -3.4394   64.7781   78.0077 H   0  0  0  0  0  0  0  0  0  0  0  0
   -2.4883   63.7365   79.1625 H   0  0  0  0  0  0  0  0  0  0  0  0
   -2.4302   63.6310   76.1257 H   0  0  0  0  0  0  0  0  0  0  0  0
   -1.1337   64.2341   77.2759 H   0  0  0  0  0  0  0  0  0  0  0  0
   -3.0814   61.2806   76.2806 H   0  0  0  0  0  0  0  0  0  0  0  0
   -3.7821   61.4145   80.4673 H   0  0  0  0  0  0  0  0  0  0  0  0
   -3.0953   59.8642   79.8744 H   0  0  0  0  0  0  0  0  0  0  0  0
   -2.0876   61.3512   79.8744 H   0  0  0  0  0  0  0  0  0  0  0  0
   -5.2303   60.0269   79.0126 H   0  0  0  0  0  0  0  0  0  0  0  0
   -5.5740   60.8953   77.4782 H   0  0  0  0  0  0  0  0  0  0  0  0
   -4.4804   59.4703   77.4782 H   0  0  0  0  0  0  0  0  0  0  0  0
   -1.3155   59.3982   77.9063 H   0  0  0  0  0  0  0  0  0  0  0  0
   -2.8628   58.9350   77.0974 H   0  0  0  0  0  0  0  0  0  0  0  0
   -0.8913   58.3656   75.7206 H   0  0  0  0  0  0  0  0  0  0  0  0
   -1.9683   59.6321   74.9470 H   0  0  0  0  0  0  0  0  0  0  0  0
   -1.2228   62.1161   75.1033 H   0  0  0  0  0  0  0  0  0  0  0  0
    2.6243   63.0466   74.4431 H   0  0  0  0  0  0  0  0  0  0  0  0
   -1.4556   61.0677   73.5094 H   0  0  0  0  0  0  0  0  0  0  0  0
   -0.1604   61.5119   72.3468 H   0  0  0  0  0  0  0  0  0  0  0  0
   -0.8349   59.8471   72.3468 H   0  0  0  0  0  0  0  0  0  0  0  0
    1.3837   58.3461   74.5293 H   0  0  0  0  0  0  0  0  0  0  0  0
   -0.0239   58.3020   73.3480 H   0  0  0  0  0  0  0  0  0  0  0  0
    2.1458   57.6092   72.3580 H   0  0  0  0  0  0  0  0  0  0  0  0
    1.3505   59.0461   71.5730 H   0  0  0  0  0  0  0  0  0  0  0  0
    3.7131   61.4725   73.1732 H   0  0  0  0  0  0  0  0  0  0  0  0
    1.4508   61.3087   71.1333 H   0  0  0  0  0  0  0  0  0  0  0  0
    2.4114   62.7758   71.6600 H   0  0  0  0  0  0  0  0  0  0  0  0
    2.2389   62.9035   69.2767 H   0  0  0  0  0  0  0  0  0  0  0  0
    3.7743   62.4682   68.4522 H   0  0  0  0  0  0  0  0  0  0  0  0
    2.3967   61.3154   68.4522 H   0  0  0  0  0  0  0  0  0  0  0  0
    2.6896   59.5011   69.8298 H   0  0  0  0  0  0  0  0  0  0  0  0
    4.4205   59.7917   69.3843 H   0  0  0  0  0  0  0  0  0  0  0  0
    4.1692   58.1894   71.2576 H   0  0  0  0  0  0  0  0  0  0  0  0
    5.0668   59.7243   71.7061 H   0  0  0  0  0  0  0  0  0  0  0  0
    3.4011   59.3467   74.8088 H   0  0  0  0  0  0  0  0  0  0  0  0
    3.9869   57.9166   73.8932 H   0  0  0  0  0  0  0  0  0  0  0  0
    4.9439   59.4368   73.8932 H   0  0  0  0  0  0  0  0  0  0  0  0
    0.7172   60.0199   77.5763 H   0  0  0  0  0  0  0  0  0  0  0  0
    1.2723   58.8012   76.3791 H   0  0  0  0  0  0  0  0  0  0  0  0
    1.9855   60.4498   76.3791 H   0  0  0  0  0  0  0  0  0  0  0  0
   -1.0392   62.0704   79.3327 H   0  0  0  0  0  0  0  0  0  0  0  0
    0.1469   61.0684   78.4295 H   0  0  0  0  0  0  0  0  0  0  0  0
    0.2987   62.8583   78.4295 H   0  0  0  0  0  0  0  0  0  0  0  0
   -8.5882   64.9234   79.5421 H   0  0  0  0  0  0  0  0  0  0  0  0
   -6.5081   64.2547   77.3853 H   0  0  0  0  0  0  0  0  0  0  0  0
   -6.4935   62.1496   78.2718 H   0  0  0  0  0  0  0  0  0  0  0  0
   -9.0171   62.5167   80.7742 H   0  0  0  0  0  0  0  0  0  0  0  0
   -8.8247   62.4800   77.7111 H   0  0  0  0  0  0  0  0  0  0  0  0
   -9.4619   65.9436   77.8601 H   0  0  0  0  0  0  0  0  0  0  0  0
  -10.7536   63.2379   79.6597 H   0  0  0  0  0  0  0  0  0  0  0  0
   -7.8642   66.7056   78.6094 H   0  0  0  0  0  0  0  0  0  0  0  0
   -4.9197   68.2296   76.6187 H   0  0  0  0  0  0  0  0  0  0  0  0
   -4.0496   66.1026   78.5757 H   0  0  0  0  0  0  0  0  0  0  0  0
   -4.4460   69.0801   79.0364 H   0  0  0  0  0  0  0  0  0  0  0  0
   -6.6329   67.9344   80.3072 H   0  0  0  0  0  0  0  0  0  0  0  0
   -7.0912   69.8230   79.2982 H   0  0  0  0  0  0  0  0  0  0  0  0
   -4.8529   68.1241   81.2881 H   0  0  0  0  0  0  0  0  0  0  0  0
   -2.2896   67.7610   78.8413 H   0  0  0  0  0  0  0  0  0  0  0  0
  2  1  1  0
  3  2  1  0
  4  3  1  0
  5  4  1  0
  6  5  1  0
  6  1  1  0
  7  6  1  0
  8  6  1  0
  9  5  1  0
 10  9  1  0
 11 10  1  0
 12 11  1  0
 12  4  1  0
 13 12  1  0
 14 13  2  0
 15 13  1  0
 16 15  2  0
 17 16  1  0
 17 11  1  0
 17 18  1  6
 19 17  1  0
 20 19  1  0
 21 20  1  0
 22 21  1  0
 22 16  1  0
 23 22  1  0
 24 23  1  0
 24 25  1  6
 26 24  1  0
 27 26  1  0
 27 21  1  0
 21 28  1  1
 11 29  1  1
  4 30  1  1
 31 24  1  0
 32 31  2  0
 33 31  1  0
 34  1  1  0
 36 35  1  0
 37 36  1  0
 37 34  1  0
 38 37  1  0
 39 38  1  0
 40 39  1  0
 40 35  1  0
 41 39  1  0
 42 41  2  0
 43 41  1  0
 44 35  1  0
 45 40  1  0
 46 36  1  0
 47 46  1  0
 48 47  1  0
 49 48  1  0
 50 49  1  0
 51 50  1  0
 52 47  1  0
 52 51  1  0
 53 49  1  0
 54 53  2  0
 55 53  1  0
 56 52  1  0
 57 51  1  0
 58 50  1  0
  1 59  1  6
  2 60  1  0
  2 61  1  0
  3 62  1  0
  3 63  1  0
  5 64  1  6
  7 65  1  0
  7 66  1  0
  7 67  1  0
  8 68  1  0
  8 69  1  0
  8 70  1  0
  9 71  1  0
  9 72  1  0
 10 73  1  0
 10 74  1  0
 12 75  1  6
 15 76  1  0
 18 77  1  0
 18 78  1  0
 18 79  1  0
 19 80  1  0
 19 81  1  0
 20 82  1  0
 20 83  1  0
 22 84  1  1
 23 85  1  0
 23 86  1  0
 25 87  1  0
 25 88  1  0
 25 89  1  0
 26 90  1  0
 26 91  1  0
 27 92  1  0
 27 93  1  0
 28 94  1  0
 28 95  1  0
 28 96  1  0
 29 97  1  0
 29 98  1  0
 29 99  1  0
 30100  1  0
 30101  1  0
 30102  1  0
 35103  1  1
 36104  1  6
 37105  1  6
 39106  1  1
 40107  1  6
 44108  1  0
 45109  1  0
 47110  1  6
 49111  1  6
 50112  1  1
 51113  1  6
 52114  1  1
 56115  1  0
 57116  1  0
 58117  1  0
M  CHG  3  33  -1  43  -1  55  -1
M  END
>  <score>  (1) 
-8.577

$$$$
=
     RDKit          3D

117123  0  0  0  0  0  0  0  0999 V2000
   -4.8140   62.8810   77.6130 C   0  0  1  0  0  0  0  0  0  0  0  0
   -3.7950   64.0180   77.5110 C   0  0  0  0  0  0  0  0  0  0  0  0
   -2.6450   63.7060   76.5510 C   0  0  0  0  0  0  0  0  0  0  0  0
   -1.8780   62.3810   76.8650 C   0  0  1  0  0  0  0  0  0  0  0  0
   -2.9700   61.2460   76.9620 C   0  0  2  0  0  0  0  0  0  0  0  0
   -4.1580   61.5090   77.9630 C   0  0  0  0  0  0  0  0  0  0  0  0
   -3.7530   61.4380   79.4510 C   0  0  0  0  0  0  0  0  0  0  0  0
   -5.2590   60.4270   77.7740 C   0  0  0  0  0  0  0  0  0  0  0  0
   -2.3240   59.8540   77.0910 C   0  0  0  0  0  0  0  0  0  0  0  0
   -1.4640   59.5380   75.8670 C   0  0  0  0  0  0  0  0  0  0  0  0
   -0.3330   60.5640   75.5980 C   0  0  2  0  0  0  0  0  0  0  0  0
   -0.9110   62.0290   75.6450 C   0  0  2  0  0  0  0  0  0  0  0  0
    0.2360   63.0250   75.3880 C   0  0  0  0  0  0  0  0  0  0  0  0
    0.2810   64.1590   75.8610 O   0  0  0  0  0  0  0  0  0  0  0  0
    1.3460   62.6130   74.4830 C   0  0  0  0  0  0  0  0  0  0  0  0
    1.4280   61.3980   73.9040 C   0  0  0  0  0  0  0  0  0  0  0  0
    0.3460   60.3270   74.1350 C   0  0  2  0  0  0  0  0  0  0  0  0
   -0.6890   60.4980   72.9790 C   0  0  0  0  0  0  0  0  0  0  0  0
    0.8980   58.8730   74.0160 C   0  0  0  0  0  0  0  0  0  0  0  0
    1.9550   58.6720   72.9290 C   0  0  0  0  0  0  0  0  0  0  0  0
    3.1410   59.6520   73.0650 C   0  0  2  0  0  0  0  0  0  0  0  0
    2.6230   61.1160   72.9730 C   0  0  1  0  0  0  0  0  0  0  0  0
    2.3010   61.5660   71.5270 C   0  0  0  0  0  0  0  0  0  0  0  0
    3.4270   61.2780   70.5160 C   0  0  2  0  0  0  0  0  0  0  0  0
    2.9500   61.6550   69.1030 C   0  0  0  0  0  0  0  0  0  0  0  0
    3.7760   59.7850   70.5620 C   0  0  0  0  0  0  0  0  0  0  0  0
    4.1920   59.3520   71.9650 C   0  0  0  0  0  0  0  0  0  0  0  0
    3.8560   59.4320   74.4220 C   0  0  0  0  0  0  0  0  0  0  0  0
    0.7320   60.3500   76.7250 C   0  0  0  0  0  0  0  0  0  0  0  0
   -1.0790   62.5790   78.1770 C   0  0  0  0  0  0  0  0  0  0  0  0
    4.6970   62.1650   70.6940 C   0  0  0  0  0  0  0  0  0  0  0  0
    4.5880   63.3650   70.3070 O   0  0  0  0  0  0  0  0  0  0  0  0
    5.6990   61.5970   71.2130 O   0  0  0  0  0  1  0  0  0  0  0  0
   -5.7680   63.2200   78.6290 O   0  0  0  0  0  0  0  0  0  0  0  0
   -8.5150   64.7880   76.5890 C   0  0  2  0  0  0  0  0  0  0  0  0
   -7.8620   63.6830   77.4400 C   0  0  2  0  0  0  0  0  0  0  0  0
   -6.6590   64.2650   78.2440 C   0  0  2  0  0  0  0  0  0  0  0  0
   -5.9930   65.2680   77.4750 O   0  0  0  0  0  0  0  0  0  0  0  0
   -6.8050   66.4510   77.2900 C   0  0  1  0  0  0  0  0  0  0  0  0
   -8.3110   66.1630   77.2120 C   0  0  1  0  0  0  0  0  0  0  0  0
   -6.7160   67.4770   78.4460 C   0  0  0  0  0  0  0  0  0  0  0  0
   -5.5800   68.0470   78.5270 O   0  0  0  0  0  0  0  0  0  0  0  0
   -7.7570   67.6850   79.1260 O   0  0  0  0  0  1  0  0  0  0  0  0
   -9.9280   64.5220   76.4480 O   0  0  0  0  0  0  0  0  0  0  0  0
   -8.9950   67.1550   76.4220 O   0  0  0  0  0  0  0  0  0  0  0  0
   -7.5440   62.6380   76.4980 O   0  0  0  0  0  0  0  0  0  0  0  0
   -8.3500   61.4700   76.5460 C   0  0  2  0  0  0  0  0  0  0  0  0
   -7.5800   60.3250   76.1340 O   0  0  0  0  0  0  0  0  0  0  0  0
   -7.3490   60.1930   74.7050 C   0  0  1  0  0  0  0  0  0  0  0  0
   -7.7980   61.4080   73.8780 C   0  0  2  0  0  0  0  0  0  0  0  0
   -9.2740   61.7260   74.1870 C   0  0  1  0  0  0  0  0  0  0  0  0
   -9.6270   61.5130   75.6720 C   0  0  1  0  0  0  0  0  0  0  0  0
   -5.8710   59.7990   74.4030 C   0  0  0  0  0  0  0  0  0  0  0  0
   -5.6150   58.5540   74.4730 O   0  0  0  0  0  0  0  0  0  0  0  0
   -5.0550   60.7520   74.2350 O   0  0  0  0  0  1  0  0  0  0  0  0
  -10.3460   60.2630   75.8260 O   0  0  0  0  0  0  0  0  0  0  0  0
   -9.6160   63.0660   73.7830 O   0  0  0  0  0  0  0  0  0  0  0  0
   -7.6650   61.1580   72.4650 O   0  0  0  0  0  0  0  0  0  0  0  0
   -5.2925   62.7672   76.6291 H   0  0  0  0  0  0  0  0  0  0  0  0
   -4.3124   64.9216   77.1563 H   0  0  0  0  0  0  0  0  0  0  0  0
   -3.3594   64.1601   78.5110 H   0  0  0  0  0  0  0  0  0  0  0  0
   -3.0575   63.6311   75.5340 H   0  0  0  0  0  0  0  0  0  0  0  0
   -1.9160   64.5223   76.6613 H   0  0  0  0  0  0  0  0  0  0  0  0
   -3.4952   61.2720   75.9958 H   0  0  0  0  0  0  0  0  0  0  0  0
   -4.6414   61.5937   80.0806 H   0  0  0  0  0  0  0  0  0  0  0  0
   -3.3196   60.4502   79.6663 H   0  0  0  0  0  0  0  0  0  0  0  0
   -3.0094   62.2195   79.6663 H   0  0  0  0  0  0  0  0  0  0  0  0
   -5.6085   60.0836   78.7588 H   0  0  0  0  0  0  0  0  0  0  0  0
   -6.1032   60.8567   77.2147 H   0  0  0  0  0  0  0  0  0  0  0  0
   -4.8441   59.5755   77.2147 H   0  0  0  0  0  0  0  0  0  0  0  0
   -1.6920   59.8319   77.9910 H   0  0  0  0  0  0  0  0  0  0  0  0
   -3.1222   59.1007   77.1645 H   0  0  0  0  0  0  0  0  0  0  0  0
   -1.0042   58.5498   76.0152 H   0  0  0  0  0  0  0  0  0  0  0  0
   -2.1336   59.5724   74.9950 H   0  0  0  0  0  0  0  0  0  0  0  0
   -1.6400   62.1196   74.8262 H   0  0  0  0  0  0  0  0  0  0  0  0
    2.1437   63.3414   74.2756 H   0  0  0  0  0  0  0  0  0  0  0  0
   -1.6898   60.6634   73.4044 H   0  0  0  0  0  0  0  0  0  0  0  0
   -0.4068   61.3617   72.3590 H   0  0  0  0  0  0  0  0  0  0  0  0
   -0.6996   59.5894   72.3590 H   0  0  0  0  0  0  0  0  0  0  0  0
    1.3451   58.5972   74.9824 H   0  0  0  0  0  0  0  0  0  0  0  0
    0.0429   58.2406   73.7352 H   0  0  0  0  0  0  0  0  0  0  0  0
    2.3386   57.6433   72.9966 H   0  0  0  0  0  0  0  0  0  0  0  0
    1.4747   58.8631   71.9580 H   0  0  0  0  0  0  0  0  0  0  0  0
    3.4693   61.7241   73.3251 H   0  0  0  0  0  0  0  0  0  0  0  0
    1.3944   61.0391   71.1945 H   0  0  0  0  0  0  0  0  0  0  0  0
    2.1700   62.6578   71.5551 H   0  0  0  0  0  0  0  0  0  0  0  0
    2.0889   62.3356   69.1761 H   0  0  0  0  0  0  0  0  0  0  0  0
    3.7669   62.1541   68.5612 H   0  0  0  0  0  0  0  0  0  0  0  0
    2.6531   60.7449   68.5612 H   0  0  0  0  0  0  0  0  0  0  0  0
    2.8953   59.2022   70.2542 H   0  0  0  0  0  0  0  0  0  0  0  0
    4.6208   59.6064   69.8805 H   0  0  0  0  0  0  0  0  0  0  0  0
    4.3750   58.2674   71.9504 H   0  0  0  0  0  0  0  0  0  0  0  0
    5.0895   59.9344   72.2205 H   0  0  0  0  0  0  0  0  0  0  0  0
    3.1571   59.6470   75.2438 H   0  0  0  0  0  0  0  0  0  0  0  0
    4.1951   58.3880   74.4928 H   0  0  0  0  0  0  0  0  0  0  0  0
    4.7234   60.1048   74.4928 H   0  0  0  0  0  0  0  0  0  0  0  0
    0.2494   60.4470   77.7087 H   0  0  0  0  0  0  0  0  0  0  0  0
    1.1706   59.3458   76.6291 H   0  0  0  0  0  0  0  0  0  0  0  0
    1.5244   61.1069   76.6291 H   0  0  0  0  0  0  0  0  0  0  0  0
   -1.7426   62.4146   79.0388 H   0  0  0  0  0  0  0  0  0  0  0  0
   -0.2475   61.8598   78.2120 H   0  0  0  0  0  0  0  0  0  0  0  0
   -0.6795   63.6033   78.2120 H   0  0  0  0  0  0  0  0  0  0  0  0
   -8.0340   64.7868   75.5997 H   0  0  0  0  0  0  0  0  0  0  0  0
   -8.5087   63.2659   78.2260 H   0  0  0  0  0  0  0  0  0  0  0  0
   -7.0338   64.7386   79.1634 H   0  0  0  0  0  0  0  0  0  0  0  0
   -6.3912   66.8424   76.3489 H   0  0  0  0  0  0  0  0  0  0  0  0
   -8.7287   66.1928   78.2292 H   0  0  0  0  0  0  0  0  0  0  0  0
  -10.3403   64.4444   77.3447 H   0  0  0  0  0  0  0  0  0  0  0  0
   -9.4422   67.8035   77.0216 H   0  0  0  0  0  0  0  0  0  0  0  0
   -8.6786   61.4046   77.5937 H   0  0  0  0  0  0  0  0  0  0  0  0
   -7.9998   59.3695   74.3759 H   0  0  0  0  0  0  0  0  0  0  0  0
   -7.1548   62.2581   74.1494 H   0  0  0  0  0  0  0  0  0  0  0  0
   -9.8718   61.0135   73.5997 H   0  0  0  0  0  0  0  0  0  0  0  0
  -10.2530   62.3558   76.0004 H   0  0  0  0  0  0  0  0  0  0  0  0
  -10.4602   60.0645   76.7891 H   0  0  0  0  0  0  0  0  0  0  0  0
   -9.7591   63.6265   74.5864 H   0  0  0  0  0  0  0  0  0  0  0  0
   -7.2047   60.2928   72.3248 H   0  0  0  0  0  0  0  0  0  0  0  0
  2  1  1  0
  3  2  1  0
  4  3  1  0
  5  4  1  0
  6  5  1  0
  6  1  1  0
  7  6  1  0
  8  6  1  0
  9  5  1  0
 10  9  1  0
 11 10  1  0
 12 11  1  0
 12  4  1  0
 13 12  1  0
 14 13  2  0
 15 13  1  0
 16 15  2  0
 17 16  1  0
 17 11  1  0
 17 18  1  6
 19 17  1  0
 20 19  1  0
 21 20  1  0
 22 21  1  0
 22 16  1  0
 23 22  1  0
 24 23  1  0
 24 25  1  6
 26 24  1  0
 27 26  1  0
 27 21  1  0
 21 28  1  1
 11 29  1  1
  4 30  1  1
 31 24  1  0
 32 31  2  0
 33 31  1  0
 34  1  1  0
 36 35  1  0
 37 36  1  0
 37 34  1  0
 38 37  1  0
 39 38  1  0
 40 39  1  0
 40 35  1  0
 41 39  1  0
 42 41  2  0
 43 41  1  0
 44 35  1  0
 45 40  1  0
 46 36  1  0
 47 46  1  0
 48 47  1  0
 49 48  1  0
 50 49  1  0
 51 50  1  0
 52 47  1  0
 52 51  1  0
 53 49  1  0
 54 53  2  0
 55 53  1  0
 56 52  1  0
 57 51  1  0
 58 50  1  0
  1 59  1  6
  2 60  1  0
  2 61  1  0
  3 62  1  0
  3 63  1  0
  5 64  1  6
  7 65  1  0
  7 66  1  0
  7 67  1  0
  8 68  1  0
  8 69  1  0
  8 70  1  0
  9 71  1  0
  9 72  1  0
 10 73  1  0
 10 74  1  0
 12 75  1  6
 15 76  1  0
 18 77  1  0
 18 78  1  0
 18 79  1  0
 19 80  1  0
 19 81  1  0
 20 82  1  0
 20 83  1  0
 22 84  1  1
 23 85  1  0
 23 86  1  0
 25 87  1  0
 25 88  1  0
 25 89  1  0
 26 90  1  0
 26 91  1  0
 27 92  1  0
 27 93  1  0
 28 94  1  0
 28 95  1  0
 28 96  1  0
 29 97  1  0
 29 98  1  0
 29 99  1  0
 30100  1  0
 30101  1  0
 30102  1  0
 35103  1  6
 36104  1  1
 37105  1  1
 39106  1  6
 40107  1  1
 44108  1  0
 45109  1  0
 47110  1  1
 49111  1  6
 50112  1  1
 51113  1  6
 52114  1  1
 56115  1  0
 57116  1  0
 58117  1  0
M  CHG  3  33  -1  43  -1  55  -1
M  END
>  <score>  (2) 
-8.554

$$$$
=
     RDKit          3D

117123  0  0  0  0  0  0  0  0999 V2000
   -1.3400   56.4800   77.3380 C   0  0  1  0  0  0  0  0  0  0  0  0
   -2.2770   56.0730   76.2000 C   0  0  0  0  0  0  0  0  0  0  0  0
   -3.2470   57.1870   75.7970 C   0  0  0  0  0  0  0  0  0  0  0  0
   -4.1110   57.7500   76.9700 C   0  0  1  0  0  0  0  0  0  0  0  0
   -3.1010   58.1510   78.1150 C   0  0  2  0  0  0  0  0  0  0  0  0
   -2.1030   57.0260   78.5850 C   0  0  0  0  0  0  0  0  0  0  0  0
   -2.7720   55.8870   79.3840 C   0  0  0  0  0  0  0  0  0  0  0  0
   -1.0310   57.6340   79.5340 C   0  0  0  0  0  0  0  0  0  0  0  0
   -3.8160   58.8900   79.2620 C   0  0  0  0  0  0  0  0  0  0  0  0
   -4.4530   60.1850   78.7600 C   0  0  0  0  0  0  0  0  0  0  0  0
   -5.4760   59.9920   77.6100 C   0  0  2  0  0  0  0  0  0  0  0  0
   -4.8560   59.0760   76.4870 C   0  0  2  0  0  0  0  0  0  0  0  0
   -5.8970   58.8920   75.3660 C   0  0  0  0  0  0  0  0  0  0  0  0
   -5.9800   57.8860   74.6640 O   0  0  0  0  0  0  0  0  0  0  0  0
   -6.8420   60.0080   75.0810 C   0  0  0  0  0  0  0  0  0  0  0  0
   -6.8680   61.1630   75.7780 C   0  0  0  0  0  0  0  0  0  0  0  0
   -5.8890   61.4190   76.9390 C   0  0  2  0  0  0  0  0  0  0  0  0
   -4.6570   62.1470   76.3170 C   0  0  0  0  0  0  0  0  0  0  0  0
   -6.4700   62.3840   78.0180 C   0  0  0  0  0  0  0  0  0  0  0  0
   -7.3200   63.5290   77.4670 C   0  0  0  0  0  0  0  0  0  0  0  0
   -8.4710   63.0330   76.5640 C   0  0  2  0  0  0  0  0  0  0  0  0
   -7.8850   62.2410   75.3590 C   0  0  1  0  0  0  0  0  0  0  0  0
   -7.2910   63.1490   74.2550 C   0  0  0  0  0  0  0  0  0  0  0  0
   -8.2280   64.2870   73.8090 C   0  0  2  0  0  0  0  0  0  0  0  0
   -7.4890   65.1880   72.8040 C   0  0  0  0  0  0  0  0  0  0  0  0
   -8.6390   65.1120   75.0350 C   0  0  0  0  0  0  0  0  0  0  0  0
   -9.3180   64.2410   76.0890 C   0  0  0  0  0  0  0  0  0  0  0  0
   -9.4270   62.1230   77.3760 C   0  0  0  0  0  0  0  0  0  0  0  0
   -6.7340   59.3140   78.2480 C   0  0  0  0  0  0  0  0  0  0  0  0
   -5.1250   56.6600   77.3980 C   0  0  0  0  0  0  0  0  0  0  0  0
   -9.4720   63.8180   72.9940 C   0  0  0  0  0  0  0  0  0  0  0  0
  -10.4460   64.6260   72.9670 O   0  0  0  0  0  0  0  0  0  0  0  0
   -9.3750   62.6880   72.4390 O   0  0  0  0  0  1  0  0  0  0  0  0
   -0.5710   55.3320   77.7220 O   0  0  0  0  0  0  0  0  0  0  0  0
    2.2520   55.4890   75.2390 C   0  0  2  0  0  0  0  0  0  0  0  0
    1.6010   55.6350   76.6260 C   0  0  2  0  0  0  0  0  0  0  0  0
    0.2650   54.8340   76.6790 C   0  0  2  0  0  0  0  0  0  0  0  0
   -0.3900   54.8860   75.4110 O   0  0  0  0  0  0  0  0  0  0  0  0
    0.3310   54.1600   74.3870 C   0  0  1  0  0  0  0  0  0  0  0  0
    1.8540   54.1780   74.5730 C   0  0  1  0  0  0  0  0  0  0  0  0
    0.0150   52.6460   74.3320 C   0  0  0  0  0  0  0  0  0  0  0  0
    0.8410   51.9340   74.9910 O   0  0  0  0  0  0  0  0  0  0  0  0
   -1.0260   52.2870   73.7180 O   0  0  0  0  0  1  0  0  0  0  0  0
    3.6890   55.5550   75.3650 O   0  0  0  0  0  0  0  0  0  0  0  0
    2.5380   54.0530   73.3110 O   0  0  0  0  0  0  0  0  0  0  0  0
    1.4920   57.0590   76.8290 O   0  0  0  0  0  0  0  0  0  0  0  0
    2.3190   57.6250   77.8360 C   0  0  2  0  0  0  0  0  0  0  0  0
    1.7410   58.8550   78.3120 O   0  0  0  0  0  0  0  0  0  0  0  0
    1.8910   60.0080   77.4400 C   0  0  1  0  0  0  0  0  0  0  0  0
    2.4720   59.6820   76.0560 C   0  0  2  0  0  0  0  0  0  0  0  0
    3.8010   58.9190   76.2220 C   0  0  1  0  0  0  0  0  0  0  0  0
    3.7730   57.9290   77.4020 C   0  0  1  0  0  0  0  0  0  0  0  0
    0.5620   60.8180   77.3360 C   0  0  0  0  0  0  0  0  0  0  0  0
   -0.4810   60.1240   77.1100 O   0  0  0  0  0  0  0  0  0  0  0  0
    0.6650   62.0790   77.3680 O   0  0  0  0  0  1  0  0  0  0  0  0
    4.4930   58.4940   78.5270 O   0  0  0  0  0  0  0  0  0  0  0  0
    4.1650   58.2330   75.0070 O   0  0  0  0  0  0  0  0  0  0  0  0
    2.7200   60.8810   75.2950 O   0  0  0  0  0  0  0  0  0  0  0  0
   -0.6977   57.2943   76.9714 H   0  0  0  0  0  0  0  0  0  0  0  0
   -1.6685   55.8040   75.3240 H   0  0  0  0  0  0  0  0  0  0  0  0
   -2.8797   55.2249   76.5571 H   0  0  0  0  0  0  0  0  0  0  0  0
   -2.6611   58.0160   75.3734 H   0  0  0  0  0  0  0  0  0  0  0  0
   -3.9496   56.7440   75.0759 H   0  0  0  0  0  0  0  0  0  0  0  0
   -2.4097   58.8683   77.6485 H   0  0  0  0  0  0  0  0  0  0  0  0
   -2.6590   56.0793   80.4612 H   0  0  0  0  0  0  0  0  0  0  0  0
   -3.8413   55.8399   79.1301 H   0  0  0  0  0  0  0  0  0  0  0  0
   -2.2924   54.9302   79.1301 H   0  0  0  0  0  0  0  0  0  0  0  0
   -1.3287   57.4652   80.5794 H   0  0  0  0  0  0  0  0  0  0  0  0
   -0.0600   57.1522   79.3469 H   0  0  0  0  0  0  0  0  0  0  0  0
   -0.9462   58.7146   79.3469 H   0  0  0  0  0  0  0  0  0  0  0  0
   -4.6003   58.2395   79.6764 H   0  0  0  0  0  0  0  0  0  0  0  0
   -3.0756   59.1387   80.0365 H   0  0  0  0  0  0  0  0  0  0  0  0
   -4.9707   60.6636   79.6043 H   0  0  0  0  0  0  0  0  0  0  0  0
   -3.6362   60.7997   78.3538 H   0  0  0  0  0  0  0  0  0  0  0  0
   -3.9875   59.6086   76.0722 H   0  0  0  0  0  0  0  0  0  0  0  0
   -7.5588   59.8833   74.2560 H   0  0  0  0  0  0  0  0  0  0  0  0
   -4.0116   62.5284   77.1220 H   0  0  0  0  0  0  0  0  0  0  0  0
   -4.0885   61.4397   75.6953 H   0  0  0  0  0  0  0  0  0  0  0  0
   -5.0024   62.9862   75.6953 H   0  0  0  0  0  0  0  0  0  0  0  0
   -7.0955   61.7933   78.7034 H   0  0  0  0  0  0  0  0  0  0  0  0
   -5.6052   62.8516   78.5113 H   0  0  0  0  0  0  0  0  0  0  0  0
   -7.7503   64.0866   78.3120 H   0  0  0  0  0  0  0  0  0  0  0  0
   -6.6650   64.1646   76.8530 H   0  0  0  0  0  0  0  0  0  0  0  0
   -8.7547   61.7258   74.9252 H   0  0  0  0  0  0  0  0  0  0  0  0
   -6.3616   63.5960   74.6376 H   0  0  0  0  0  0  0  0  0  0  0  0
   -7.1230   62.5114   73.3745 H   0  0  0  0  0  0  0  0  0  0  0  0
   -6.8834   65.9264   73.3499 H   0  0  0  0  0  0  0  0  0  0  0  0
   -6.8332   64.5713   72.1718 H   0  0  0  0  0  0  0  0  0  0  0  0
   -8.2221   65.7104   72.1718 H   0  0  0  0  0  0  0  0  0  0  0  0
   -7.7415   65.5718   75.4745 H   0  0  0  0  0  0  0  0  0  0  0  0
   -9.3529   65.8833   74.7103 H   0  0  0  0  0  0  0  0  0  0  0  0
   -9.5408   64.8700   76.9635 H   0  0  0  0  0  0  0  0  0  0  0  0
  -10.2211   63.8254   75.6183 H   0  0  0  0  0  0  0  0  0  0  0  0
   -9.2596   62.2824   78.4514 H   0  0  0  0  0  0  0  0  0  0  0  0
  -10.4693   62.3709   77.1265 H   0  0  0  0  0  0  0  0  0  0  0  0
   -9.2308   61.0698   77.1265 H   0  0  0  0  0  0  0  0  0  0  0  0
   -6.6566   59.3557   79.3445 H   0  0  0  0  0  0  0  0  0  0  0  0
   -7.6409   59.8455   77.9240 H   0  0  0  0  0  0  0  0  0  0  0  0
   -6.7887   58.2642   77.9240 H   0  0  0  0  0  0  0  0  0  0  0  0
   -5.1698   56.6118   78.4960 H   0  0  0  0  0  0  0  0  0  0  0  0
   -6.1202   56.9088   77.0010 H   0  0  0  0  0  0  0  0  0  0  0  0
   -4.8050   55.6853   77.0010 H   0  0  0  0  0  0  0  0  0  0  0  0
    1.8952   56.3152   74.6065 H   0  0  0  0  0  0  0  0  0  0  0  0
    2.1822   55.2036   77.4543 H   0  0  0  0  0  0  0  0  0  0  0  0
    0.4849   53.7796   76.9025 H   0  0  0  0  0  0  0  0  0  0  0  0
   -0.0002   54.6906   73.4821 H   0  0  0  0  0  0  0  0  0  0  0  0
    2.1420   53.3224   75.2015 H   0  0  0  0  0  0  0  0  0  0  0  0
    3.9360   55.5663   76.3236 H   0  0  0  0  0  0  0  0  0  0  0  0
    3.4988   53.8774   73.4724 H   0  0  0  0  0  0  0  0  0  0  0  0
    2.3711   56.8519   78.6168 H   0  0  0  0  0  0  0  0  0  0  0  0
    2.6471   60.6453   77.9219 H   0  0  0  0  0  0  0  0  0  0  0  0
    1.7367   59.0666   75.5170 H   0  0  0  0  0  0  0  0  0  0  0  0
    4.5652   59.6777   76.4463 H   0  0  0  0  0  0  0  0  0  0  0  0
    4.2492   56.9923   77.0767 H   0  0  0  0  0  0  0  0  0  0  0  0
    4.0872   58.1756   79.3720 H   0  0  0  0  0  0  0  0  0  0  0  0
    4.6169   57.3813   75.2316 H   0  0  0  0  0  0  0  0  0  0  0  0
    2.8766   61.6380   75.9135 H   0  0  0  0  0  0  0  0  0  0  0  0
  2  1  1  0
  3  2  1  0
  4  3  1  0
  5  4  1  0
  6  5  1  0
  6  1  1  0
  7  6  1  0
  8  6  1  0
  9  5  1  0
 10  9  1  0
 11 10  1  0
 12 11  1  0
 12  4  1  0
 13 12  1  0
 14 13  2  0
 15 13  1  0
 16 15  2  0
 17 16  1  0
 17 11  1  0
 17 18  1  6
 19 17  1  0
 20 19  1  0
 21 20  1  0
 22 21  1  0
 22 16  1  0
 23 22  1  0
 24 23  1  0
 24 25  1  6
 26 24  1  0
 27 26  1  0
 27 21  1  0
 21 28  1  1
 11 29  1  1
  4 30  1  1
 31 24  1  0
 32 31  2  0
 33 31  1  0
 34  1  1  0
 36 35  1  0
 37 36  1  0
 37 34  1  0
 38 37  1  0
 39 38  1  0
 40 39  1  0
 40 35  1  0
 41 39  1  0
 42 41  2  0
 43 41  1  0
 44 35  1  0
 45 40  1  0
 46 36  1  0
 47 46  1  0
 48 47  1  0
 49 48  1  0
 50 49  1  0
 51 50  1  0
 52 47  1  0
 52 51  1  0
 53 49  1  0
 54 53  2  0
 55 53  1  0
 56 52  1  0
 57 51  1  0
 58 50  1  0
  1 59  1  6
  2 60  1  0
  2 61  1  0
  3 62  1  0
  3 63  1  0
  5 64  1  6
  7 65  1  0
  7 66  1  0
  7 67  1  0
  8 68  1  0
  8 69  1  0
  8 70  1  0
  9 71  1  0
  9 72  1  0
 10 73  1  0
 10 74  1  0
 12 75  1  6
 15 76  1  0
 18 77  1  0
 18 78  1  0
 18 79  1  0
 19 80  1  0
 19 81  1  0
 20 82  1  0
 20 83  1  0
 22 84  1  6
 23 85  1  0
 23 86  1  0
 25 87  1  0
 25 88  1  0
 25 89  1  0
 26 90  1  0
 26 91  1  0
 27 92  1  0
 27 93  1  0
 28 94  1  0
 28 95  1  0
 28 96  1  0
 29 97  1  0
 29 98  1  0
 29 99  1  0
 30100  1  0
 30101  1  0
 30102  1  0
 35103  1  6
 36104  1  1
 37105  1  1
 39106  1  6
 40107  1  1
 44108  1  0
 45109  1  0
 47110  1  1
 49111  1  1
 50112  1  6
 51113  1  1
 52114  1  6
 56115  1  0
 57116  1  0
 58117  1  0
M  CHG  3  33  -1  43  -1  55  -1
M  END
>  <score>  (3) 
-7.454

$$$$
=
     RDKit          3D

117123  0  0  0  0  0  0  0  0999 V2000
   -3.9780   58.7160   77.6760 C   0  0  1  0  0  0  0  0  0  0  0  0
   -3.7010   60.2200   77.6230 C   0  0  0  0  0  0  0  0  0  0  0  0
   -2.6310   60.5950   76.5950 C   0  0  0  0  0  0  0  0  0  0  0  0
   -1.2700   59.8480   76.7720 C   0  0  1  0  0  0  0  0  0  0  0  0
   -1.6110   58.3070   76.8230 C   0  0  2  0  0  0  0  0  0  0  0  0
   -2.6840   57.8690   77.8900 C   0  0  0  0  0  0  0  0  0  0  0  0
   -2.1890   57.9490   79.3490 C   0  0  0  0  0  0  0  0  0  0  0  0
   -3.0810   56.3830   77.6600 C   0  0  0  0  0  0  0  0  0  0  0  0
   -0.3330   57.4480   76.8150 C   0  0  0  0  0  0  0  0  0  0  0  0
    0.4710   57.6820   75.5350 C   0  0  0  0  0  0  0  0  0  0  0  0
    0.8890   59.1570   75.3030 C   0  0  2  0  0  0  0  0  0  0  0  0
   -0.3560   60.1060   75.4890 C   0  0  2  0  0  0  0  0  0  0  0  0
    0.0910   61.5630   75.2650 C   0  0  0  0  0  0  0  0  0  0  0  0
   -0.4190   62.5320   75.8240 O   0  0  0  0  0  0  0  0  0  0  0  0
    1.1820   61.8300   74.2860 C   0  0  0  0  0  0  0  0  0  0  0  0
    1.8340   60.8620   73.6090 C   0  0  0  0  0  0  0  0  0  0  0  0
    1.4790   59.3750   73.7990 C   0  0  2  0  0  0  0  0  0  0  0  0
    0.4190   59.0380   72.7040 C   0  0  0  0  0  0  0  0  0  0  0  0
    2.6900   58.4270   73.5430 C   0  0  0  0  0  0  0  0  0  0  0  0
    3.6130   58.8540   72.4010 C   0  0  0  0  0  0  0  0  0  0  0  0
    4.1310   60.3000   72.5650 C   0  0  2  0  0  0  0  0  0  0  0  0
    2.9280   61.2840   72.6110 C   0  0  1  0  0  0  0  0  0  0  0  0
    2.3120   61.5690   71.2190 C   0  0  0  0  0  0  0  0  0  0  0  0
    3.3450   61.9550   70.1440 C   0  0  2  0  0  0  0  0  0  0  0  0
    2.6360   62.0940   68.7850 C   0  0  0  0  0  0  0  0  0  0  0  0
    4.4150   60.8590   70.0560 C   0  0  0  0  0  0  0  0  0  0  0  0
    5.1000   60.6410   71.4030 C   0  0  0  0  0  0  0  0  0  0  0  0
    4.9590   60.4200   73.8700 C   0  0  0  0  0  0  0  0  0  0  0  0
    1.9940   59.4750   76.3640 C   0  0  0  0  0  0  0  0  0  0  0  0
   -0.5900   60.3710   78.0610 C   0  0  0  0  0  0  0  0  0  0  0  0
    3.9860   63.3620   70.3380 C   0  0  0  0  0  0  0  0  0  0  0  0
    5.2290   63.4360   70.1110 O   0  0  0  0  0  0  0  0  0  0  0  0
    3.1980   64.2830   70.6930 O   0  0  0  0  0  1  0  0  0  0  0  0
   -4.8900   58.4630   78.7540 O   0  0  0  0  0  0  0  0  0  0  0  0
   -7.8960   57.1280   76.9260 C   0  0  2  0  0  0  0  0  0  0  0  0
   -6.5160   57.7980   77.0430 C   0  0  2  0  0  0  0  0  0  0  0  0
   -5.8870   57.4930   78.4370 C   0  0  2  0  0  0  0  0  0  0  0  0
   -6.9060   57.4410   79.4360 O   0  0  0  0  0  0  0  0  0  0  0  0
   -7.7850   56.3030   79.2690 C   0  0  1  0  0  0  0  0  0  0  0  0
   -7.9880   55.8870   77.8060 C   0  0  1  0  0  0  0  0  0  0  0  0
   -7.2720   54.9970   79.9230 C   0  0  0  0  0  0  0  0  0  0  0  0
   -6.3360   55.1900   80.7660 O   0  0  0  0  0  0  0  0  0  0  0  0
   -7.8520   53.9220   79.6170 O   0  0  0  0  0  1  0  0  0  0  0  0
   -8.1490   56.7690   75.5500 O   0  0  0  0  0  0  0  0  0  0  0  0
   -9.2690   55.2560   77.6130 O   0  0  0  0  0  0  0  0  0  0  0  0
   -6.7600   59.1900   76.7530 O   0  0  0  0  0  0  0  0  0  0  0  0
   -8.0930   59.6520   76.9240 C   0  0  2  0  0  0  0  0  0  0  0  0
   -8.6500   60.0260   75.6500 O   0  0  0  0  0  0  0  0  0  0  0  0
   -8.2020   61.2990   75.1090 C   0  0  1  0  0  0  0  0  0  0  0  0
   -7.0520   61.9490   75.8920 C   0  0  2  0  0  0  0  0  0  0  0  0
   -7.4450   62.0720   77.3780 C   0  0  1  0  0  0  0  0  0  0  0  0
   -8.2550   60.8600   77.8780 C   0  0  1  0  0  0  0  0  0  0  0  0
   -7.8770   61.1850   73.5870 C   0  0  0  0  0  0  0  0  0  0  0  0
   -7.1190   60.2150   73.2640 O   0  0  0  0  0  0  0  0  0  0  0  0
   -8.2960   62.1230   72.8480 O   0  0  0  0  0  1  0  0  0  0  0  0
   -9.6590   61.2140   77.9570 O   0  0  0  0  0  0  0  0  0  0  0  0
   -6.2860   62.2720   78.2100 O   0  0  0  0  0  0  0  0  0  0  0  0
   -6.7500   63.2640   75.3850 O   0  0  0  0  0  0  0  0  0  0  0  0
   -4.4027   58.4163   76.7066 H   0  0  0  0  0  0  0  0  0  0  0  0
   -4.6349   60.7395   77.3623 H   0  0  0  0  0  0  0  0  0  0  0  0
   -3.3264   60.5207   78.6126 H   0  0  0  0  0  0  0  0  0  0  0  0
   -3.0217   60.3639   75.5930 H   0  0  0  0  0  0  0  0  0  0  0  0
   -2.4208   61.6650   76.7394 H   0  0  0  0  0  0  0  0  0  0  0  0
   -2.1462   58.1016   75.8842 H   0  0  0  0  0  0  0  0  0  0  0  0
   -3.0396   57.8115   80.0328 H   0  0  0  0  0  0  0  0  0  0  0  0
   -1.4439   57.1596   79.5272 H   0  0  0  0  0  0  0  0  0  0  0  0
   -1.7305   58.9329   79.5272 H   0  0  0  0  0  0  0  0  0  0  0  0
   -3.2142   55.8845   78.6315 H   0  0  0  0  0  0  0  0  0  0  0  0
   -4.0225   56.3386   77.0929 H   0  0  0  0  0  0  0  0  0  0  0  0
   -2.2871   55.8749   77.0929 H   0  0  0  0  0  0  0  0  0  0  0  0
    0.2865   57.7151   77.6838 H   0  0  0  0  0  0  0  0  0  0  0  0
   -0.6209   56.3874   76.8615 H   0  0  0  0  0  0  0  0  0  0  0  0
    1.3833   57.0694   75.5847 H   0  0  0  0  0  0  0  0  0  0  0  0
   -0.1853   57.4056   74.6966 H   0  0  0  0  0  0  0  0  0  0  0  0
   -1.0872   59.8434   74.7103 H   0  0  0  0  0  0  0  0  0  0  0  0
    1.4723   62.8754   74.1049 H   0  0  0  0  0  0  0  0  0  0  0  0
   -0.5234   58.7384   73.1858 H   0  0  0  0  0  0  0  0  0  0  0  0
    0.2446   59.9250   72.0772 H   0  0  0  0  0  0  0  0  0  0  0  0
    0.7888   58.2131   72.0772 H   0  0  0  0  0  0  0  0  0  0  0  0
    3.2874   58.3794   74.4654 H   0  0  0  0  0  0  0  0  0  0  0  0
    2.2645   57.4563   73.2487 H   0  0  0  0  0  0  0  0  0  0  0  0
    4.4756   58.1720   72.3714 H   0  0  0  0  0  0  0  0  0  0  0  0
    3.0307   58.8124   71.4687 H   0  0  0  0  0  0  0  0  0  0  0  0
    3.3638   62.2257   72.9761 H   0  0  0  0  0  0  0  0  0  0  0  0
    1.7842   60.6644   70.8825 H   0  0  0  0  0  0  0  0  0  0  0  0
    1.6400   62.4316   71.3389 H   0  0  0  0  0  0  0  0  0  0  0  0
    1.5685   62.3033   68.9481 H   0  0  0  0  0  0  0  0  0  0  0  0
    3.0892   62.9204   68.2178 H   0  0  0  0  0  0  0  0  0  0  0  0
    2.7436   61.1577   68.2178 H   0  0  0  0  0  0  0  0  0  0  0  0
    3.9394   59.9189   69.7399 H   0  0  0  0  0  0  0  0  0  0  0  0
    5.1760   61.1753   69.3274 H   0  0  0  0  0  0  0  0  0  0  0  0
    5.8144   59.8115   71.2957 H   0  0  0  0  0  0  0  0  0  0  0  0
    5.5852   61.5923   71.6668 H   0  0  0  0  0  0  0  0  0  0  0  0
    4.2908   60.3232   74.7384 H   0  0  0  0  0  0  0  0  0  0  0  0
    5.7157   59.6221   73.8988 H   0  0  0  0  0  0  0  0  0  0  0  0
    5.4581   61.3999   73.8988 H   0  0  0  0  0  0  0  0  0  0  0  0
    1.5771   59.3550   77.3748 H   0  0  0  0  0  0  0  0  0  0  0  0
    2.8393   58.7837   76.2316 H   0  0  0  0  0  0  0  0  0  0  0  0
    2.3425   60.5099   76.2316 H   0  0  0  0  0  0  0  0  0  0  0  0
   -1.1133   59.9685   78.9408 H   0  0  0  0  0  0  0  0  0  0  0  0
    0.4608   60.0461   78.0790 H   0  0  0  0  0  0  0  0  0  0  0  0
   -0.6343   61.4700   78.0790 H   0  0  0  0  0  0  0  0  0  0  0  0
   -8.6543   57.8472   77.2691 H   0  0  0  0  0  0  0  0  0  0  0  0
   -5.7605   57.4175   76.3398 H   0  0  0  0  0  0  0  0  0  0  0  0
   -5.3966   56.5089   78.4043 H   0  0  0  0  0  0  0  0  0  0  0  0
   -8.7043   56.6777   79.7428 H   0  0  0  0  0  0  0  0  0  0  0  0
   -7.2073   55.1611   77.5346 H   0  0  0  0  0  0  0  0  0  0  0  0
   -8.7190   55.9602   75.5194 H   0  0  0  0  0  0  0  0  0  0  0  0
   -9.6745   55.0563   78.4938 H   0  0  0  0  0  0  0  0  0  0  0  0
   -8.6220   58.8047   77.3846 H   0  0  0  0  0  0  0  0  0  0  0  0
   -9.0517   61.9868   75.2312 H   0  0  0  0  0  0  0  0  0  0  0  0
   -6.1625   61.3120   75.7777 H   0  0  0  0  0  0  0  0  0  0  0  0
   -8.0943   62.9568   77.4531 H   0  0  0  0  0  0  0  0  0  0  0  0
   -7.8760   60.5796   78.8719 H   0  0  0  0  0  0  0  0  0  0  0  0
   -9.9292   61.2821   78.9070 H   0  0  0  0  0  0  0  0  0  0  0  0
   -6.5517   62.2261   79.1626 H   0  0  0  0  0  0  0  0  0  0  0  0
   -6.6074   63.8851   76.1427 H   0  0  0  0  0  0  0  0  0  0  0  0
  2  1  1  0
  3  2  1  0
  4  3  1  0
  5  4  1  0
  6  5  1  0
  6  1  1  0
  7  6  1  0
  8  6  1  0
  9  5  1  0
 10  9  1  0
 11 10  1  0
 12 11  1  0
 12  4  1  0
 13 12  1  0
 14 13  2  0
 15 13  1  0
 16 15  2  0
 17 16  1  0
 17 11  1  0
 17 18  1  6
 19 17  1  0
 20 19  1  0
 21 20  1  0
 22 21  1  0
 22 16  1  0
 23 22  1  0
 24 23  1  0
 24 25  1  6
 26 24  1  0
 27 26  1  0
 27 21  1  0
 21 28  1  1
 11 29  1  1
  4 30  1  1
 31 24  1  0
 32 31  2  0
 33 31  1  0
 34  1  1  0
 36 35  1  0
 37 36  1  0
 37 34  1  0
 38 37  1  0
 39 38  1  0
 40 39  1  0
 40 35  1  0
 41 39  1  0
 42 41  2  0
 43 41  1  0
 44 35  1  0
 45 40  1  0
 46 36  1  0
 47 46  1  0
 48 47  1  0
 49 48  1  0
 50 49  1  0
 51 50  1  0
 52 47  1  0
 52 51  1  0
 53 49  1  0
 54 53  2  0
 55 53  1  0
 56 52  1  0
 57 51  1  0
 58 50  1  0
  1 59  1  6
  2 60  1  0
  2 61  1  0
  3 62  1  0
  3 63  1  0
  5 64  1  6
  7 65  1  0
  7 66  1  0
  7 67  1  0
  8 68  1  0
  8 69  1  0
  8 70  1  0
  9 71  1  0
  9 72  1  0
 10 73  1  0
 10 74  1  0
 12 75  1  6
 15 76  1  0
 18 77  1  0
 18 78  1  0
 18 79  1  0
 19 80  1  0
 19 81  1  0
 20 82  1  0
 20 83  1  0
 22 84  1  1
 23 85  1  0
 23 86  1  0
 25 87  1  0
 25 88  1  0
 25 89  1  0
 26 90  1  0
 26 91  1  0
 27 92  1  0
 27 93  1  0
 28 94  1  0
 28 95  1  0
 28 96  1  0
 29 97  1  0
 29 98  1  0
 29 99  1  0
 30100  1  0
 30101  1  0
 30102  1  0
 35103  1  1
 36104  1  6
 37105  1  6
 39106  1  1
 40107  1  6
 44108  1  0
 45109  1  0
 47110  1  1
 49111  1  6
 50112  1  1
 51113  1  6
 52114  1  1
 56115  1  0
 57116  1  0
 58117  1  0
M  CHG  3  33  -1  43  -1  55  -1
M  END
>  <score>  (4) 
-7.265

$$$$
=
     RDKit          3D

117123  0  0  0  0  0  0  0  0999 V2000
    2.6170   59.0600   75.0260 C   0  0  1  0  0  0  0  0  0  0  0  0
    1.9900   58.0650   74.0470 C   0  0  0  0  0  0  0  0  0  0  0  0
    0.8050   57.3040   74.6460 C   0  0  0  0  0  0  0  0  0  0  0  0
    1.1230   56.5520   75.9790 C   0  0  1  0  0  0  0  0  0  0  0  0
    1.7680   57.6180   76.9490 C   0  0  2  0  0  0  0  0  0  0  0  0
    3.0120   58.4050   76.3860 C   0  0  0  0  0  0  0  0  0  0  0  0
    4.2890   57.5480   76.2540 C   0  0  0  0  0  0  0  0  0  0  0  0
    3.3820   59.5680   77.3510 C   0  0  0  0  0  0  0  0  0  0  0  0
    1.9630   57.0450   78.3650 C   0  0  0  0  0  0  0  0  0  0  0  0
    0.6210   56.6430   78.9770 C   0  0  0  0  0  0  0  0  0  0  0  0
   -0.1750   55.6010   78.1490 C   0  0  2  0  0  0  0  0  0  0  0  0
   -0.2400   56.0500   76.6390 C   0  0  2  0  0  0  0  0  0  0  0  0
   -1.0250   54.9920   75.8400 C   0  0  0  0  0  0  0  0  0  0  0  0
   -0.8190   54.7330   74.6560 O   0  0  0  0  0  0  0  0  0  0  0  0
   -2.1260   54.2560   76.5220 C   0  0  0  0  0  0  0  0  0  0  0  0
   -2.4530   54.4330   77.8180 C   0  0  0  0  0  0  0  0  0  0  0  0
   -1.6990   55.4430   78.7040 C   0  0  2  0  0  0  0  0  0  0  0  0
   -2.4940   56.7820   78.6100 C   0  0  0  0  0  0  0  0  0  0  0  0
   -1.6940   55.0400   80.2100 C   0  0  0  0  0  0  0  0  0  0  0  0
   -2.9910   54.4020   80.7120 C   0  0  0  0  0  0  0  0  0  0  0  0
   -3.4170   53.1820   79.8660 C   0  0  2  0  0  0  0  0  0  0  0  0
   -3.6310   53.6190   78.3880 C   0  0  1  0  0  0  0  0  0  0  0  0
   -4.9690   54.3620   78.1520 C   0  0  0  0  0  0  0  0  0  0  0  0
   -6.1970   53.6380   78.7330 C   0  0  2  0  0  0  0  0  0  0  0  0
   -7.4430   54.5210   78.5460 C   0  0  0  0  0  0  0  0  0  0  0  0
   -5.9700   53.3780   80.2270 C   0  0  0  0  0  0  0  0  0  0  0  0
   -4.7040   52.5580   80.4640 C   0  0  0  0  0  0  0  0  0  0  0  0
   -2.3270   52.0820   79.9370 C   0  0  0  0  0  0  0  0  0  0  0  0
    0.5930   54.2440   78.2920 C   0  0  0  0  0  0  0  0  0  0  0  0
    2.0630   55.3650   75.6580 C   0  0  0  0  0  0  0  0  0  0  0  0
   -6.5920   52.3300   77.9820 C   0  0  0  0  0  0  0  0  0  0  0  0
   -7.7500   51.8830   78.2290 O   0  0  0  0  0  0  0  0  0  0  0  0
   -5.7210   51.8580   77.1980 O   0  0  0  0  0  1  0  0  0  0  0  0
    3.7890   59.6170   74.4140 O   0  0  0  0  0  0  0  0  0  0  0  0
    1.9990   62.1260   72.2550 C   0  0  2  0  0  0  0  0  0  0  0  0
    2.7450   61.6440   73.5120 C   0  0  2  0  0  0  0  0  0  0  0  0
    3.5160   60.3240   73.2050 C   0  0  2  0  0  0  0  0  0  0  0  0
    2.7750   59.5240   72.2840 O   0  0  0  0  0  0  0  0  0  0  0  0
    2.7050   60.1200   70.9670 C   0  0  1  0  0  0  0  0  0  0  0  0
    2.6920   61.6540   70.9820 C   0  0  1  0  0  0  0  0  0  0  0  0
    3.9140   59.8010   70.0550 C   0  0  0  0  0  0  0  0  0  0  0  0
    3.8040   58.6900   69.4420 O   0  0  0  0  0  0  0  0  0  0  0  0
    4.8240   60.6690   69.9640 O   0  0  0  0  0  1  0  0  0  0  0  0
    1.9180   63.5680   72.2600 O   0  0  0  0  0  0  0  0  0  0  0  0
    2.0010   62.1850   69.8350 O   0  0  0  0  0  0  0  0  0  0  0  0
    1.7260   61.5570   74.5300 O   0  0  0  0  0  0  0  0  0  0  0  0
    1.8520   62.4390   75.6350 C   0  0  2  0  0  0  0  0  0  0  0  0
    1.1700   61.8930   76.7790 O   0  0  0  0  0  0  0  0  0  0  0  0
   -0.2800   62.0010   76.7670 C   0  0  1  0  0  0  0  0  0  0  0  0
   -0.8650   62.5050   75.4390 C   0  0  2  0  0  0  0  0  0  0  0  0
   -0.1930   63.8380   75.0540 C   0  0  1  0  0  0  0  0  0  0  0  0
    1.3070   63.8690   75.4040 C   0  0  1  0  0  0  0  0  0  0  0  0
   -0.9520   60.6720   77.2300 C   0  0  0  0  0  0  0  0  0  0  0  0
   -1.0710   59.7800   76.3300 O   0  0  0  0  0  0  0  0  0  0  0  0
   -1.4130   60.6520   78.4090 O   0  0  0  0  0  1  0  0  0  0  0  0
    1.5070   64.6510   76.6090 O   0  0  0  0  0  0  0  0  0  0  0  0
   -0.3820   64.1330   73.6550 O   0  0  0  0  0  0  0  0  0  0  0  0
   -2.2870   62.7170   75.5390 O   0  0  0  0  0  0  0  0  0  0  0  0
    1.8673   59.8340   75.2471 H   0  0  0  0  0  0  0  0  0  0  0  0
    1.6411   58.6167   73.1616 H   0  0  0  0  0  0  0  0  0  0  0  0
    2.7617   57.3241   73.7909 H   0  0  0  0  0  0  0  0  0  0  0  0
   -0.0021   58.0251   74.8427 H   0  0  0  0  0  0  0  0  0  0  0  0
    0.5252   56.5339   73.9121 H   0  0  0  0  0  0  0  0  0  0  0  0
    1.0223   58.4230   77.0254 H   0  0  0  0  0  0  0  0  0  0  0  0
    4.6660   57.2950   77.2559 H   0  0  0  0  0  0  0  0  0  0  0  0
    4.0550   56.6234   75.7060 H   0  0  0  0  0  0  0  0  0  0  0  0
    5.0560   58.1149   75.7060 H   0  0  0  0  0  0  0  0  0  0  0  0
    3.2742   59.2291   78.3919 H   0  0  0  0  0  0  0  0  0  0  0  0
    4.4226   59.8763   77.1717 H   0  0  0  0  0  0  0  0  0  0  0  0
    2.7108   60.4209   77.1717 H   0  0  0  0  0  0  0  0  0  0  0  0
    2.6138   56.1599   78.3095 H   0  0  0  0  0  0  0  0  0  0  0  0
    2.4221   57.8184   78.9984 H   0  0  0  0  0  0  0  0  0  0  0  0
    0.8111   56.2178   79.9735 H   0  0  0  0  0  0  0  0  0  0  0  0
    0.0056   57.5541   79.0094 H   0  0  0  0  0  0  0  0  0  0  0  0
   -0.7971   56.9978   76.6023 H   0  0  0  0  0  0  0  0  0  0  0  0
   -2.7047   53.5273   75.9354 H   0  0  0  0  0  0  0  0  0  0  0  0
   -2.7128   57.1504   79.6231 H   0  0  0  0  0  0  0  0  0  0  0  0
   -1.8926   57.5284   78.0703 H   0  0  0  0  0  0  0  0  0  0  0  0
   -3.4372   56.6113   78.0703 H   0  0  0  0  0  0  0  0  0  0  0  0
   -0.8764   54.3214   80.3684 H   0  0  0  0  0  0  0  0  0  0  0  0
   -1.5702   55.9738   80.7781 H   0  0  0  0  0  0  0  0  0  0  0  0
   -2.8439   54.0758   81.7522 H   0  0  0  0  0  0  0  0  0  0  0  0
   -3.7869   55.1572   80.6333 H   0  0  0  0  0  0  0  0  0  0  0  0
   -3.6803   52.6718   77.8310 H   0  0  0  0  0  0  0  0  0  0  0  0
   -4.9001   55.3556   78.6188 H   0  0  0  0  0  0  0  0  0  0  0  0
   -5.1161   54.4154   77.0632 H   0  0  0  0  0  0  0  0  0  0  0  0
   -7.8428   54.8043   79.5308 H   0  0  0  0  0  0  0  0  0  0  0  0
   -7.1692   55.4278   77.9867 H   0  0  0  0  0  0  0  0  0  0  0  0
   -8.2078   53.9622   77.9867 H   0  0  0  0  0  0  0  0  0  0  0  0
   -5.8744   54.3423   80.7476 H   0  0  0  0  0  0  0  0  0  0  0  0
   -6.8283   52.8089   80.6136 H   0  0  0  0  0  0  0  0  0  0  0  0
   -4.5620   52.4500   81.5494 H   0  0  0  0  0  0  0  0  0  0  0  0
   -4.8530   51.5950   79.9537 H   0  0  0  0  0  0  0  0  0  0  0  0
   -2.1026   51.8556   80.9898 H   0  0  0  0  0  0  0  0  0  0  0  0
   -2.6904   51.1728   79.4358 H   0  0  0  0  0  0  0  0  0  0  0  0
   -1.4145   52.4371   79.4358 H   0  0  0  0  0  0  0  0  0  0  0  0
    0.7262   54.0087   79.3582 H   0  0  0  0  0  0  0  0  0  0  0  0
    0.0145   53.4426   77.8091 H   0  0  0  0  0  0  0  0  0  0  0  0
    1.5778   54.3274   77.8091 H   0  0  0  0  0  0  0  0  0  0  0  0
    2.4192   54.9152   76.5965 H   0  0  0  0  0  0  0  0  0  0  0  0
    1.5148   54.6105   75.0747 H   0  0  0  0  0  0  0  0  0  0  0  0
    2.9230   55.7257   75.0747 H   0  0  0  0  0  0  0  0  0  0  0  0
    0.9869   61.6956   72.2721 H   0  0  0  0  0  0  0  0  0  0  0  0
    3.5383   62.3204   73.8630 H   0  0  0  0  0  0  0  0  0  0  0  0
    4.4807   60.5696   72.7370 H   0  0  0  0  0  0  0  0  0  0  0  0
    1.7681   59.6841   70.5899 H   0  0  0  0  0  0  0  0  0  0  0  0
    3.7306   62.0148   70.9494 H   0  0  0  0  0  0  0  0  0  0  0  0
    1.8997   63.8942   73.1945 H   0  0  0  0  0  0  0  0  0  0  0  0
    1.2534   62.7595   70.1369 H   0  0  0  0  0  0  0  0  0  0  0  0
    2.9368   62.5300   75.7927 H   0  0  0  0  0  0  0  0  0  0  0  0
   -0.5230   62.7847   77.4996 H   0  0  0  0  0  0  0  0  0  0  0  0
   -0.6746   61.7392   74.6727 H   0  0  0  0  0  0  0  0  0  0  0  0
   -0.6876   64.6163   75.6537 H   0  0  0  0  0  0  0  0  0  0  0  0
    1.8486   64.3225   74.5608 H   0  0  0  0  0  0  0  0  0  0  0  0
    1.3604   64.0776   77.4026 H   0  0  0  0  0  0  0  0  0  0  0  0
   -0.9137   64.9629   73.5616 H   0  0  0  0  0  0  0  0  0  0  0  0
   -2.5485   62.7560   76.4930 H   0  0  0  0  0  0  0  0  0  0  0  0
  2  1  1  0
  3  2  1  0
  4  3  1  0
  5  4  1  0
  6  5  1  0
  6  1  1  0
  7  6  1  0
  8  6  1  0
  9  5  1  0
 10  9  1  0
 11 10  1  0
 12 11  1  0
 12  4  1  0
 13 12  1  0
 14 13  2  0
 15 13  1  0
 16 15  2  0
 17 16  1  0
 17 11  1  0
 17 18  1  1
 19 17  1  0
 20 19  1  0
 21 20  1  0
 22 21  1  0
 22 16  1  0
 23 22  1  0
 24 23  1  0
 24 25  1  1
 26 24  1  0
 27 26  1  0
 27 21  1  0
 21 28  1  6
 11 29  1  6
  4 30  1  6
 31 24  1  0
 32 31  2  0
 33 31  1  0
 34  1  1  0
 36 35  1  0
 37 36  1  0
 37 34  1  0
 38 37  1  0
 39 38  1  0
 40 39  1  0
 40 35  1  0
 41 39  1  0
 42 41  2  0
 43 41  1  0
 44 35  1  0
 45 40  1  0
 46 36  1  0
 47 46  1  0
 48 47  1  0
 49 48  1  0
 50 49  1  0
 51 50  1  0
 52 47  1  0
 52 51  1  0
 53 49  1  0
 54 53  2  0
 55 53  1  0
 56 52  1  0
 57 51  1  0
 58 50  1  0
  1 59  1  1
  2 60  1  0
  2 61  1  0
  3 62  1  0
  3 63  1  0
  5 64  1  1
  7 65  1  0
  7 66  1  0
  7 67  1  0
  8 68  1  0
  8 69  1  0
  8 70  1  0
  9 71  1  0
  9 72  1  0
 10 73  1  0
 10 74  1  0
 12 75  1  1
 15 76  1  0
 18 77  1  0
 18 78  1  0
 18 79  1  0
 19 80  1  0
 19 81  1  0
 20 82  1  0
 20 83  1  0
 22 84  1  6
 23 85  1  0
 23 86  1  0
 25 87  1  0
 25 88  1  0
 25 89  1  0
 26 90  1  0
 26 91  1  0
 27 92  1  0
 27 93  1  0
 28 94  1  0
 28 95  1  0
 28 96  1  0
 29 97  1  0
 29 98  1  0
 29 99  1  0
 30100  1  0
 30101  1  0
 30102  1  0
 35103  1  1
 36104  1  1
 37105  1  6
 39106  1  6
 40107  1  1
 44108  1  0
 45109  1  0
 47110  1  1
 49111  1  1
 50112  1  6
 51113  1  1
 52114  1  6
 56115  1  0
 57116  1  0
 58117  1  0
M  CHG  3  33  -1  43  -1  55  -1
M  END
>  <score>  (5) 
-7.124

$$$$
=
     RDKit          3D

117123  0  0  0  0  0  0  0  0999 V2000
   -1.2980   58.2410   77.4120 C   0  0  1  0  0  0  0  0  0  0  0  0
   -1.9270   57.8780   76.0660 C   0  0  0  0  0  0  0  0  0  0  0  0
   -2.9990   58.8740   75.6180 C   0  0  0  0  0  0  0  0  0  0  0  0
   -4.1470   59.1000   76.6540 C   0  0  1  0  0  0  0  0  0  0  0  0
   -3.4470   59.4680   78.0210 C   0  0  2  0  0  0  0  0  0  0  0  0
   -2.3580   58.4540   78.5380 C   0  0  0  0  0  0  0  0  0  0  0  0
   -2.9340   57.1120   79.0350 C   0  0  0  0  0  0  0  0  0  0  0  0
   -1.6020   59.0640   79.7530 C   0  0  0  0  0  0  0  0  0  0  0  0
   -4.4780   59.8920   79.0840 C   0  0  0  0  0  0  0  0  0  0  0  0
   -5.2460   61.1350   78.6300 C   0  0  0  0  0  0  0  0  0  0  0  0
   -5.9940   60.9680   77.2820 C   0  0  2  0  0  0  0  0  0  0  0  0
   -5.0270   60.3520   76.2010 C   0  0  2  0  0  0  0  0  0  0  0  0
   -5.8000   60.1870   74.8790 C   0  0  0  0  0  0  0  0  0  0  0  0
   -5.5700   59.3050   74.0540 O   0  0  0  0  0  0  0  0  0  0  0  0
   -6.8700   61.1710   74.5520 C   0  0  0  0  0  0  0  0  0  0  0  0
   -7.2320   62.1810   75.3690 C   0  0  0  0  0  0  0  0  0  0  0  0
   -6.5390   62.4000   76.7270 C   0  0  2  0  0  0  0  0  0  0  0  0
   -5.3730   63.4040   76.4630 C   0  0  0  0  0  0  0  0  0  0  0  0
   -7.4700   63.0780   77.7780 C   0  0  0  0  0  0  0  0  0  0  0  0
   -8.4070   64.1470   77.2160 C   0  0  0  0  0  0  0  0  0  0  0  0
   -9.2670   63.6260   76.0430 C   0  0  2  0  0  0  0  0  0  0  0  0
   -8.3410   63.1380   74.8920 C   0  0  1  0  0  0  0  0  0  0  0  0
   -7.7390   64.2930   74.0540 C   0  0  0  0  0  0  0  0  0  0  0  0
   -8.7760   65.3250   73.5750 C   0  0  2  0  0  0  0  0  0  0  0  0
   -8.0520   66.4800   72.8610 C   0  0  0  0  0  0  0  0  0  0  0  0
   -9.5440   65.8690   74.7860 C   0  0  0  0  0  0  0  0  0  0  0  0
  -10.2260   64.7460   75.5630 C   0  0  0  0  0  0  0  0  0  0  0  0
  -10.1670   62.4600   76.5250 C   0  0  0  0  0  0  0  0  0  0  0  0
   -7.1980   60.0080   77.5620 C   0  0  0  0  0  0  0  0  0  0  0  0
   -5.0000   57.8100   76.7280 C   0  0  0  0  0  0  0  0  0  0  0  0
   -9.7480   64.8020   72.4730 C   0  0  0  0  0  0  0  0  0  0  0  0
  -10.4780   65.6780   71.9240 O   0  0  0  0  0  0  0  0  0  0  0  0
   -9.6990   63.5620   72.2370 O   0  0  0  0  0  1  0  0  0  0  0  0
   -0.4100   57.1820   77.7960 O   0  0  0  0  0  0  0  0  0  0  0  0
    3.3010   57.1040   77.1740 C   0  0  2  0  0  0  0  0  0  0  0  0
    1.8160   57.1290   76.7690 C   0  0  2  0  0  0  0  0  0  0  0  0
    0.9410   57.6080   77.9680 C   0  0  2  0  0  0  0  0  0  0  0  0
    1.4900   57.1340   79.1980 O   0  0  0  0  0  0  0  0  0  0  0  0
    2.7590   57.7560   79.5120 C   0  0  1  0  0  0  0  0  0  0  0  0
    3.5940   58.1150   78.2760 C   0  0  1  0  0  0  0  0  0  0  0  0
    2.6430   59.1130   80.2480 C   0  0  0  0  0  0  0  0  0  0  0  0
    3.7020   59.8160   80.1760 O   0  0  0  0  0  0  0  0  0  0  0  0
    1.5330   59.4030   80.7690 O   0  0  0  0  0  1  0  0  0  0  0  0
    4.1250   57.3860   76.0220 O   0  0  0  0  0  0  0  0  0  0  0  0
    5.0040   58.1050   78.5740 O   0  0  0  0  0  0  0  0  0  0  0  0
    1.5470   55.7970   76.2850 O   0  0  0  0  0  0  0  0  0  0  0  0
    2.3050   55.3620   75.1650 C   0  0  2  0  0  0  0  0  0  0  0  0
    2.3940   56.4190   74.1920 O   0  0  0  0  0  0  0  0  0  0  0  0
    1.2030   56.6460   73.3880 C   0  0  1  0  0  0  0  0  0  0  0  0
   -0.0280   55.8490   73.8450 C   0  0  2  0  0  0  0  0  0  0  0  0
    0.3270   54.3510   73.9220 C   0  0  1  0  0  0  0  0  0  0  0  0
    1.7560   54.1080   74.4440 C   0  0  1  0  0  0  0  0  0  0  0  0
    0.8930   58.1690   73.2520 C   0  0  0  0  0  0  0  0  0  0  0  0
    1.8900   58.9030   72.9630 O   0  0  0  0  0  0  0  0  0  0  0  0
   -0.2810   58.5350   73.5540 O   0  0  0  0  0  1  0  0  0  0  0  0
    2.6290   53.7810   73.3330 O   0  0  0  0  0  0  0  0  0  0  0  0
   -0.6260   53.6290   74.7280 O   0  0  0  0  0  0  0  0  0  0  0  0
   -1.1290   56.0160   72.9300 O   0  0  0  0  0  0  0  0  0  0  0  0
   -0.7628   59.1940   77.2883 H   0  0  0  0  0  0  0  0  0  0  0  0
   -1.1337   57.8509   75.3045 H   0  0  0  0  0  0  0  0  0  0  0  0
   -2.4162   56.9000   76.1849 H   0  0  0  0  0  0  0  0  0  0  0  0
   -2.5114   59.8417   75.4290 H   0  0  0  0  0  0  0  0  0  0  0  0
   -3.4680   58.4460   74.7198 H   0  0  0  0  0  0  0  0  0  0  0  0
   -2.8292   60.3501   77.7970 H   0  0  0  0  0  0  0  0  0  0  0  0
   -2.9391   57.1001   80.1349 H   0  0  0  0  0  0  0  0  0  0  0  0
   -3.9621   56.9937   78.6622 H   0  0  0  0  0  0  0  0  0  0  0  0
   -2.3115   56.2853   78.6622 H   0  0  0  0  0  0  0  0  0  0  0  0
   -2.0542   58.6991   80.6870 H   0  0  0  0  0  0  0  0  0  0  0  0
   -0.5446   58.7631   79.7156 H   0  0  0  0  0  0  0  0  0  0  0  0
   -1.6726   60.1611   79.7156 H   0  0  0  0  0  0  0  0  0  0  0  0
   -5.1886   59.0681   79.2461 H   0  0  0  0  0  0  0  0  0  0  0  0
   -3.9458   60.1275   80.0174 H   0  0  0  0  0  0  0  0  0  0  0  0
   -5.9853   61.3850   79.4052 H   0  0  0  0  0  0  0  0  0  0  0  0
   -4.4990   61.9281   78.4787 H   0  0  0  0  0  0  0  0  0  0  0  0
   -4.2131   61.0743   76.0401 H   0  0  0  0  0  0  0  0  0  0  0  0
   -7.3940   61.0678   73.5903 H   0  0  0  0  0  0  0  0  0  0  0  0
   -4.9663   63.7542   77.4232 H   0  0  0  0  0  0  0  0  0  0  0  0
   -4.5796   62.9020   75.8899 H   0  0  0  0  0  0  0  0  0  0  0  0
   -5.7516   64.2632   75.8899 H   0  0  0  0  0  0  0  0  0  0  0  0
   -8.0861   62.2948   78.2438 H   0  0  0  0  0  0  0  0  0  0  0  0
   -6.8074   63.5928   78.4892 H   0  0  0  0  0  0  0  0  0  0  0  0
   -9.0765   64.4867   78.0200 H   0  0  0  0  0  0  0  0  0  0  0  0
   -7.7837   64.9684   76.8330 H   0  0  0  0  0  0  0  0  0  0  0  0
   -9.0093   62.5675   74.2302 H   0  0  0  0  0  0  0  0  0  0  0  0
   -6.9913   64.8141   74.6700 H   0  0  0  0  0  0  0  0  0  0  0  0
   -7.3023   63.8384   73.1525 H   0  0  0  0  0  0  0  0  0  0  0  0
   -7.6239   67.1629   73.6096 H   0  0  0  0  0  0  0  0  0  0  0  0
   -7.2463   66.0743   72.2315 H   0  0  0  0  0  0  0  0  0  0  0  0
   -8.7683   67.0284   72.2315 H   0  0  0  0  0  0  0  0  0  0  0  0
   -8.8399   66.3889   75.4523 H   0  0  0  0  0  0  0  0  0  0  0  0
  -10.3195   66.5593   74.4226 H   0  0  0  0  0  0  0  0  0  0  0  0
  -10.7122   65.1849   76.4467 H   0  0  0  0  0  0  0  0  0  0  0  0
  -10.9395   64.2738   74.8716 H   0  0  0  0  0  0  0  0  0  0  0  0
  -10.1828   62.4395   77.6247 H   0  0  0  0  0  0  0  0  0  0  0  0
  -11.1895   62.6053   76.1462 H   0  0  0  0  0  0  0  0  0  0  0  0
   -9.7675   61.5077   76.1462 H   0  0  0  0  0  0  0  0  0  0  0  0
   -7.3350   59.8988   78.6480 H   0  0  0  0  0  0  0  0  0  0  0  0
   -8.1125   60.4275   77.1174 H   0  0  0  0  0  0  0  0  0  0  0  0
   -6.9927   59.0230   77.1174 H   0  0  0  0  0  0  0  0  0  0  0  0
   -5.1747   57.5458   77.7814 H   0  0  0  0  0  0  0  0  0  0  0  0
   -5.9649   57.9792   76.2276 H   0  0  0  0  0  0  0  0  0  0  0  0
   -4.4665   56.9884   76.2276 H   0  0  0  0  0  0  0  0  0  0  0  0
    3.5324   56.1007   77.5612 H   0  0  0  0  0  0  0  0  0  0  0  0
    1.5686   57.8497   75.9757 H   0  0  0  0  0  0  0  0  0  0  0  0
    0.9425   58.7075   78.0007 H   0  0  0  0  0  0  0  0  0  0  0  0
    3.2238   56.9788   80.1364 H   0  0  0  0  0  0  0  0  0  0  0  0
    3.3225   59.1303   77.9512 H   0  0  0  0  0  0  0  0  0  0  0  0
    5.0177   57.6915   76.3217 H   0  0  0  0  0  0  0  0  0  0  0  0
    5.1339   58.1041   79.5554 H   0  0  0  0  0  0  0  0  0  0  0  0
    3.2848   55.0893   75.5841 H   0  0  0  0  0  0  0  0  0  0  0  0
    1.4406   56.2515   72.3890 H   0  0  0  0  0  0  0  0  0  0  0  0
   -0.3281   56.2267   74.8336 H   0  0  0  0  0  0  0  0  0  0  0  0
    0.2829   53.9699   72.8911 H   0  0  0  0  0  0  0  0  0  0  0  0
    1.7232   53.2744   75.1610 H   0  0  0  0  0  0  0  0  0  0  0  0
    3.4972   53.4558   73.6802 H   0  0  0  0  0  0  0  0  0  0  0  0
   -0.4282   53.7788   75.6864 H   0  0  0  0  0  0  0  0  0  0  0  0
   -1.9669   56.1431   73.4417 H   0  0  0  0  0  0  0  0  0  0  0  0
  2  1  1  0
  3  2  1  0
  4  3  1  0
  5  4  1  0
  6  5  1  0
  6  1  1  0
  7  6  1  0
  8  6  1  0
  9  5  1  0
 10  9  1  0
 11 10  1  0
 12 11  1  0
 12  4  1  0
 13 12  1  0
 14 13  2  0
 15 13  1  0
 16 15  2  0
 17 16  1  0
 17 11  1  0
 17 18  1  6
 19 17  1  0
 20 19  1  0
 21 20  1  0
 22 21  1  0
 22 16  1  0
 23 22  1  0
 24 23  1  0
 24 25  1  6
 26 24  1  0
 27 26  1  0
 27 21  1  0
 21 28  1  1
 11 29  1  1
  4 30  1  1
 31 24  1  0
 32 31  2  0
 33 31  1  0
 34  1  1  0
 36 35  1  0
 37 36  1  0
 37 34  1  0
 38 37  1  0
 39 38  1  0
 40 39  1  0
 40 35  1  0
 41 39  1  0
 42 41  2  0
 43 41  1  0
 44 35  1  0
 45 40  1  0
 46 36  1  0
 47 46  1  0
 48 47  1  0
 49 48  1  0
 50 49  1  0
 51 50  1  0
 52 47  1  0
 52 51  1  0
 53 49  1  0
 54 53  2  0
 55 53  1  0
 56 52  1  0
 57 51  1  0
 58 50  1  0
  1 59  1  6
  2 60  1  0
  2 61  1  0
  3 62  1  0
  3 63  1  0
  5 64  1  6
  7 65  1  0
  7 66  1  0
  7 67  1  0
  8 68  1  0
  8 69  1  0
  8 70  1  0
  9 71  1  0
  9 72  1  0
 10 73  1  0
 10 74  1  0
 12 75  1  6
 15 76  1  0
 18 77  1  0
 18 78  1  0
 18 79  1  0
 19 80  1  0
 19 81  1  0
 20 82  1  0
 20 83  1  0
 22 84  1  6
 23 85  1  0
 23 86  1  0
 25 87  1  0
 25 88  1  0
 25 89  1  0
 26 90  1  0
 26 91  1  0
 27 92  1  0
 27 93  1  0
 28 94  1  0
 28 95  1  0
 28 96  1  0
 29 97  1  0
 29 98  1  0
 29 99  1  0
 30100  1  0
 30101  1  0
 30102  1  0
 35103  1  1
 36104  1  6
 37105  1  1
 39106  1  1
 40107  1  6
 44108  1  0
 45109  1  0
 47110  1  1
 49111  1  6
 50112  1  1
 51113  1  6
 52114  1  1
 56115  1  0
 57116  1  0
 58117  1  0
M  CHG  3  33  -1  43  -1  55  -1
M  END
>  <score>  (6) 
-6.968

$$$$
=
     RDKit          3D

117123  0  0  0  0  0  0  0  0999 V2000
   -1.0170   57.7260   76.7260 C   0  0  1  0  0  0  0  0  0  0  0  0
   -0.6380   59.1890   76.4880 C   0  0  0  0  0  0  0  0  0  0  0  0
   -1.8350   60.1380   76.5820 C   0  0  0  0  0  0  0  0  0  0  0  0
   -3.0260   59.7770   75.6380 C   0  0  1  0  0  0  0  0  0  0  0  0
   -3.3740   58.2620   75.9190 C   0  0  2  0  0  0  0  0  0  0  0  0
   -2.1790   57.2430   75.8030 C   0  0  0  0  0  0  0  0  0  0  0  0
   -1.6940   57.0060   74.3570 C   0  0  0  0  0  0  0  0  0  0  0  0
   -2.6200   55.8490   76.3330 C   0  0  0  0  0  0  0  0  0  0  0  0
   -4.6540   57.8330   75.1780 C   0  0  0  0  0  0  0  0  0  0  0  0
   -5.8540   58.6570   75.6430 C   0  0  0  0  0  0  0  0  0  0  0  0
   -5.6900   60.1880   75.4580 C   0  0  2  0  0  0  0  0  0  0  0  0
   -4.2990   60.6550   76.0340 C   0  0  2  0  0  0  0  0  0  0  0  0
   -4.1580   62.1740   75.8250 C   0  0  0  0  0  0  0  0  0  0  0  0
   -3.0850   62.7480   75.6480 O   0  0  0  0  0  0  0  0  0  0  0  0
   -5.3870   63.0160   75.8750 C   0  0  0  0  0  0  0  0  0  0  0  0
   -6.6280   62.5190   76.0530 C   0  0  0  0  0  0  0  0  0  0  0  0
   -6.8670   61.0080   76.2320 C   0  0  2  0  0  0  0  0  0  0  0  0
   -6.8440   60.7440   77.7710 C   0  0  0  0  0  0  0  0  0  0  0  0
   -8.2720   60.5540   75.7310 C   0  0  0  0  0  0  0  0  0  0  0  0
   -9.4040   61.5450   76.0020 C   0  0  0  0  0  0  0  0  0  0  0  0
   -9.1040   62.9560   75.4480 C   0  0  2  0  0  0  0  0  0  0  0  0
   -7.8070   63.5100   76.1050 C   0  0  1  0  0  0  0  0  0  0  0  0
   -8.0190   64.0250   77.5490 C   0  0  0  0  0  0  0  0  0  0  0  0
   -9.2110   64.9890   77.7010 C   0  0  2  0  0  0  0  0  0  0  0  0
   -9.3960   65.3360   79.1880 C   0  0  0  0  0  0  0  0  0  0  0  0
  -10.4790   64.3100   77.1690 C   0  0  0  0  0  0  0  0  0  0  0  0
  -10.3150   63.8870   75.7110 C   0  0  0  0  0  0  0  0  0  0  0  0
   -8.9290   62.8940   73.9090 C   0  0  0  0  0  0  0  0  0  0  0  0
   -5.7720   60.4570   73.9190 C   0  0  0  0  0  0  0  0  0  0  0  0
   -2.5910   60.0460   74.1770 C   0  0  0  0  0  0  0  0  0  0  0  0
   -8.9980   66.3880   77.0490 C   0  0  0  0  0  0  0  0  0  0  0  0
   -7.8520   66.5950   76.5530 O   0  0  0  0  0  0  0  0  0  0  0  0
   -9.9920   67.1660   77.0740 O   0  0  0  0  0  1  0  0  0  0  0  0
    0.1420   56.9150   76.4860 O   0  0  0  0  0  0  0  0  0  0  0  0
    3.5340   58.1450   77.5560 C   0  0  2  0  0  0  0  0  0  0  0  0
    2.1600   58.2540   76.8710 C   0  0  2  0  0  0  0  0  0  0  0  0
    1.2010   57.1510   77.4130 C   0  0  2  0  0  0  0  0  0  0  0  0
    1.9330   55.9560   77.6900 O   0  0  0  0  0  0  0  0  0  0  0  0
    2.8410   56.1110   78.8060 C   0  0  1  0  0  0  0  0  0  0  0  0
    3.4160   57.5270   78.9440 C   0  0  1  0  0  0  0  0  0  0  0  0
    2.1960   55.8720   80.1940 C   0  0  0  0  0  0  0  0  0  0  0  0
    2.3470   54.6800   80.6200 O   0  0  0  0  0  0  0  0  0  0  0  0
    1.6640   56.8570   80.7700 O   0  0  0  0  0  1  0  0  0  0  0  0
    4.1340   59.4550   77.6560 O   0  0  0  0  0  0  0  0  0  0  0  0
    4.7120   57.5080   79.5730 O   0  0  0  0  0  0  0  0  0  0  0  0
    2.4510   58.1990   75.4590 O   0  0  0  0  0  0  0  0  0  0  0  0
    3.4650   59.0730   74.9830 C   0  0  2  0  0  0  0  0  0  0  0  0
    3.1000   60.4400   75.2520 O   0  0  0  0  0  0  0  0  0  0  0  0
    2.0930   61.0140   74.3740 C   0  0  1  0  0  0  0  0  0  0  0  0
    1.4340   60.0030   73.4220 C   0  0  2  0  0  0  0  0  0  0  0  0
    2.5240   59.2600   72.6250 C   0  0  1  0  0  0  0  0  0  0  0  0
    3.7760   58.9600   73.4720 C   0  0  1  0  0  0  0  0  0  0  0  0
    1.0340   61.8270   75.1800 C   0  0  0  0  0  0  0  0  0  0  0  0
    0.1540   62.4210   74.4790 O   0  0  0  0  0  0  0  0  0  0  0  0
    1.2200   61.9130   76.4290 O   0  0  0  0  0  1  0  0  0  0  0  0
    4.8260   59.9020   73.1350 O   0  0  0  0  0  0  0  0  0  0  0  0
    2.0110   58.0420   72.0490 O   0  0  0  0  0  0  0  0  0  0  0  0
    0.5490   60.6590   72.4930 O   0  0  0  0  0  0  0  0  0  0  0  0
   -1.3699   57.6335   77.7637 H   0  0  0  0  0  0  0  0  0  0  0  0
    0.1053   59.4861   77.2425 H   0  0  0  0  0  0  0  0  0  0  0  0
   -0.2373   59.2638   75.4663 H   0  0  0  0  0  0  0  0  0  0  0  0
   -2.2026   60.1251   77.6187 H   0  0  0  0  0  0  0  0  0  0  0  0
   -1.4743   61.1276   76.2647 H   0  0  0  0  0  0  0  0  0  0  0  0
   -3.5915   58.2129   76.9962 H   0  0  0  0  0  0  0  0  0  0  0  0
   -0.7058   56.5231   74.3762 H   0  0  0  0  0  0  0  0  0  0  0  0
   -2.4096   56.3560   73.8321 H   0  0  0  0  0  0  0  0  0  0  0  0
   -1.6209   57.9699   73.8321 H   0  0  0  0  0  0  0  0  0  0  0  0
   -2.6174   55.8573   77.4330 H   0  0  0  0  0  0  0  0  0  0  0  0
   -3.6336   55.6227   75.9705 H   0  0  0  0  0  0  0  0  0  0  0  0
   -1.9210   55.0809   75.9705 H   0  0  0  0  0  0  0  0  0  0  0  0
   -4.5118   57.9816   74.0974 H   0  0  0  0  0  0  0  0  0  0  0  0
   -4.8489   56.7728   75.3971 H   0  0  0  0  0  0  0  0  0  0  0  0
   -6.7359   58.3338   75.0705 H   0  0  0  0  0  0  0  0  0  0  0  0
   -5.9562   58.4805   76.7239 H   0  0  0  0  0  0  0  0  0  0  0  0
   -4.3085   60.4526   77.1152 H   0  0  0  0  0  0  0  0  0  0  0  0
   -5.2754   64.1043   75.7602 H   0  0  0  0  0  0  0  0  0  0  0  0
   -6.9273   61.7002   78.3083 H   0  0  0  0  0  0  0  0  0  0  0  0
   -7.6890   60.0950   78.0444 H   0  0  0  0  0  0  0  0  0  0  0  0
   -5.8995   60.2509   78.0444 H   0  0  0  0  0  0  0  0  0  0  0  0
   -8.2116   60.3932   74.6445 H   0  0  0  0  0  0  0  0  0  0  0  0
   -8.5198   59.6418   76.2935 H   0  0  0  0  0  0  0  0  0  0  0  0
  -10.3227   61.1686   75.5284 H   0  0  0  0  0  0  0  0  0  0  0  0
   -9.5163   61.6323   77.0928 H   0  0  0  0  0  0  0  0  0  0  0  0
   -7.5394   64.3776   75.4840 H   0  0  0  0  0  0  0  0  0  0  0  0
   -8.1895   63.1579   78.2041 H   0  0  0  0  0  0  0  0  0  0  0  0
   -7.1155   64.5902   77.8215 H   0  0  0  0  0  0  0  0  0  0  0  0
   -8.9684   64.5340   79.8076 H   0  0  0  0  0  0  0  0  0  0  0  0
   -8.8834   66.2836   79.4099 H   0  0  0  0  0  0  0  0  0  0  0  0
  -10.4685   65.4386   79.4099 H   0  0  0  0  0  0  0  0  0  0  0  0
  -10.6904   63.4190   77.7785 H   0  0  0  0  0  0  0  0  0  0  0  0
  -11.3084   65.0301   77.2292 H   0  0  0  0  0  0  0  0  0  0  0  0
  -11.2288   63.3591   75.4008 H   0  0  0  0  0  0  0  0  0  0  0  0
  -10.1354   64.8068   75.1350 H   0  0  0  0  0  0  0  0  0  0  0  0
   -7.9171   62.5355   73.6692 H   0  0  0  0  0  0  0  0  0  0  0  0
   -9.6728   62.2047   73.4829 H   0  0  0  0  0  0  0  0  0  0  0  0
   -9.0729   63.8978   73.4829 H   0  0  0  0  0  0  0  0  0  0  0  0
   -6.0887   61.4959   73.7447 H   0  0  0  0  0  0  0  0  0  0  0  0
   -4.7834   60.2940   73.4651 H   0  0  0  0  0  0  0  0  0  0  0  0
   -6.5016   59.7702   73.4651 H   0  0  0  0  0  0  0  0  0  0  0  0
   -1.6554   60.6245   74.1736 H   0  0  0  0  0  0  0  0  0  0  0  0
   -2.4318   59.0884   73.6596 H   0  0  0  0  0  0  0  0  0  0  0  0
   -3.3766   60.6162   73.6596 H   0  0  0  0  0  0  0  0  0  0  0  0
    4.1697   57.4892   76.9429 H   0  0  0  0  0  0  0  0  0  0  0  0
    1.6137   59.1849   77.0830 H   0  0  0  0  0  0  0  0  0  0  0  0
    0.7491   57.4960   78.3547 H   0  0  0  0  0  0  0  0  0  0  0  0
    3.6037   55.3571   78.5613 H   0  0  0  0  0  0  0  0  0  0  0  0
    2.7407   58.1218   79.5766 H   0  0  0  0  0  0  0  0  0  0  0  0
    4.2442   59.6956   78.6100 H   0  0  0  0  0  0  0  0  0  0  0  0
    4.6014   57.5096   80.5568 H   0  0  0  0  0  0  0  0  0  0  0  0
    4.3726   58.7638   75.5221 H   0  0  0  0  0  0  0  0  0  0  0  0
    2.6367   61.7094   73.7177 H   0  0  0  0  0  0  0  0  0  0  0  0
    0.8495   59.2964   74.0296 H   0  0  0  0  0  0  0  0  0  0  0  0
    2.8287   59.9377   71.8139 H   0  0  0  0  0  0  0  0  0  0  0  0
    4.1005   57.9319   73.2536 H   0  0  0  0  0  0  0  0  0  0  0  0
    5.2263   60.2612   73.9662 H   0  0  0  0  0  0  0  0  0  0  0  0
    1.7488   57.4195   72.7728 H   0  0  0  0  0  0  0  0  0  0  0  0
   -0.1371   61.1675   72.9938 H   0  0  0  0  0  0  0  0  0  0  0  0
  2  1  1  0
  3  2  1  0
  4  3  1  0
  5  4  1  0
  6  5  1  0
  6  1  1  0
  7  6  1  0
  8  6  1  0
  9  5  1  0
 10  9  1  0
 11 10  1  0
 12 11  1  0
 12  4  1  0
 13 12  1  0
 14 13  2  0
 15 13  1  0
 16 15  2  0
 17 16  1  0
 17 11  1  0
 17 18  1  1
 19 17  1  0
 20 19  1  0
 21 20  1  0
 22 21  1  0
 22 16  1  0
 23 22  1  0
 24 23  1  0
 24 25  1  1
 26 24  1  0
 27 26  1  0
 27 21  1  0
 21 28  1  6
 11 29  1  6
  4 30  1  6
 31 24  1  0
 32 31  2  0
 33 31  1  0
 34  1  1  0
 36 35  1  0
 37 36  1  0
 37 34  1  0
 38 37  1  0
 39 38  1  0
 40 39  1  0
 40 35  1  0
 41 39  1  0
 42 41  2  0
 43 41  1  0
 44 35  1  0
 45 40  1  0
 46 36  1  0
 47 46  1  0
 48 47  1  0
 49 48  1  0
 50 49  1  0
 51 50  1  0
 52 47  1  0
 52 51  1  0
 53 49  1  0
 54 53  2  0
 55 53  1  0
 56 52  1  0
 57 51  1  0
 58 50  1  0
  1 59  1  1
  2 60  1  0
  2 61  1  0
  3 62  1  0
  3 63  1  0
  5 64  1  1
  7 65  1  0
  7 66  1  0
  7 67  1  0
  8 68  1  0
  8 69  1  0
  8 70  1  0
  9 71  1  0
  9 72  1  0
 10 73  1  0
 10 74  1  0
 12 75  1  1
 15 76  1  0
 18 77  1  0
 18 78  1  0
 18 79  1  0
 19 80  1  0
 19 81  1  0
 20 82  1  0
 20 83  1  0
 22 84  1  6
 23 85  1  0
 23 86  1  0
 25 87  1  0
 25 88  1  0
 25 89  1  0
 26 90  1  0
 26 91  1  0
 27 92  1  0
 27 93  1  0
 28 94  1  0
 28 95  1  0
 28 96  1  0
 29 97  1  0
 29 98  1  0
 29 99  1  0
 30100  1  0
 30101  1  0
 30102  1  0
 35103  1  6
 36104  1  6
 37105  1  1
 39106  1  6
 40107  1  1
 44108  1  0
 45109  1  0
 47110  1  1
 49111  1  6
 50112  1  1
 51113  1  6
 52114  1  1
 56115  1  0
 57116  1  0
 58117  1  0
M  CHG  3  33  -1  43  -1  55  -1
M  END
>  <score>  (7) 
-6.485

$$$$
=
     RDKit          3D

117123  0  0  0  0  0  0  0  0999 V2000
    0.5720   60.4690   78.0000 C   0  0  1  0  0  0  0  0  0  0  0  0
    0.3540   60.2900   76.4960 C   0  0  0  0  0  0  0  0  0  0  0  0
   -0.9840   60.8550   76.0150 C   0  0  0  0  0  0  0  0  0  0  0  0
   -2.2340   60.2930   76.7660 C   0  0  1  0  0  0  0  0  0  0  0  0
   -1.9580   60.4980   78.3070 C   0  0  2  0  0  0  0  0  0  0  0  0
   -0.6060   59.9050   78.8540 C   0  0  0  0  0  0  0  0  0  0  0  0
   -0.5750   58.3620   78.9130 C   0  0  0  0  0  0  0  0  0  0  0  0
   -0.3690   60.3870   80.3140 C   0  0  0  0  0  0  0  0  0  0  0  0
   -3.1970   60.1480   79.1520 C   0  0  0  0  0  0  0  0  0  0  0  0
   -4.3760   61.0510   78.7880 C   0  0  0  0  0  0  0  0  0  0  0  0
   -4.7880   60.9950   77.2940 C   0  0  2  0  0  0  0  0  0  0  0  0
   -3.5170   61.1600   76.3780 C   0  0  2  0  0  0  0  0  0  0  0  0
   -3.9550   61.0880   74.9020 C   0  0  0  0  0  0  0  0  0  0  0  0
   -3.2480   60.6510   73.9960 O   0  0  0  0  0  0  0  0  0  0  0  0
   -5.3010   61.6090   74.5340 C   0  0  0  0  0  0  0  0  0  0  0  0
   -6.1810   62.1070   75.4260 C   0  0  0  0  0  0  0  0  0  0  0  0
   -5.8430   62.1830   76.9270 C   0  0  2  0  0  0  0  0  0  0  0  0
   -5.2300   63.5990   77.1630 C   0  0  0  0  0  0  0  0  0  0  0  0
   -7.1060   62.0950   77.8360 C   0  0  0  0  0  0  0  0  0  0  0  0
   -8.3430   62.8120   77.2940 C   0  0  0  0  0  0  0  0  0  0  0  0
   -8.7170   62.3530   75.8670 C   0  0  2  0  0  0  0  0  0  0  0  0
   -7.5310   62.6320   74.9000 C   0  0  1  0  0  0  0  0  0  0  0  0
   -7.4100   64.1190   74.4860 C   0  0  0  0  0  0  0  0  0  0  0  0
   -8.7290   64.7400   73.9890 C   0  0  2  0  0  0  0  0  0  0  0  0
   -8.5160   66.2400   73.7230 C   0  0  0  0  0  0  0  0  0  0  0  0
   -9.8090   64.5550   75.0630 C   0  0  0  0  0  0  0  0  0  0  0  0
  -10.0070   63.0810   75.4070 C   0  0  0  0  0  0  0  0  0  0  0  0
   -9.0490   60.8390   75.8690 C   0  0  0  0  0  0  0  0  0  0  0  0
   -5.4560   59.5970   77.0730 C   0  0  0  0  0  0  0  0  0  0  0  0
   -2.4170   58.8080   76.3670 C   0  0  0  0  0  0  0  0  0  0  0  0
   -9.2100   64.2130   72.6030 C   0  0  0  0  0  0  0  0  0  0  0  0
  -10.0380   64.9510   71.9920 O   0  0  0  0  0  0  0  0  0  0  0  0
   -8.7180   63.1120   72.2290 O   0  0  0  0  0  1  0  0  0  0  0  0
    1.7840   59.7930   78.3640 O   0  0  0  0  0  0  0  0  0  0  0  0
    5.0040   60.6870   80.0950 C   0  0  2  0  0  0  0  0  0  0  0  0
    4.1060   59.8700   79.1480 C   0  0  2  0  0  0  0  0  0  0  0  0
    2.8140   60.6750   78.8070 C   0  0  2  0  0  0  0  0  0  0  0  0
    2.4000   61.4430   79.9370 O   0  0  0  0  0  0  0  0  0  0  0  0
    3.3230   62.5130   80.2450 C   0  0  1  0  0  0  0  0  0  0  0  0
    4.7850   62.1840   79.9150 C   0  0  1  0  0  0  0  0  0  0  0  0
    3.0820   63.8170   79.4470 C   0  0  0  0  0  0  0  0  0  0  0  0
    4.1350   64.5170   79.2950 O   0  0  0  0  0  0  0  0  0  0  0  0
    1.9250   64.0180   78.9890 O   0  0  0  0  0  1  0  0  0  0  0  0
    6.3900   60.3630   79.8520 O   0  0  0  0  0  0  0  0  0  0  0  0
    5.6920   62.9070   80.7700 O   0  0  0  0  0  0  0  0  0  0  0  0
    3.9050   58.6140   79.8290 O   0  0  0  0  0  0  0  0  0  0  0  0
    4.8080   57.5650   79.5090 C   0  0  2  0  0  0  0  0  0  0  0  0
    4.8850   57.4030   78.0800 O   0  0  0  0  0  0  0  0  0  0  0  0
    3.7610   56.7240   77.4550 C   0  0  1  0  0  0  0  0  0  0  0  0
    2.5770   56.4640   78.3970 C   0  0  2  0  0  0  0  0  0  0  0  0
    3.0690   55.7110   79.6480 C   0  0  1  0  0  0  0  0  0  0  0  0
    4.4580   56.1860   80.1170 C   0  0  1  0  0  0  0  0  0  0  0  0
    3.3160   57.4510   76.1480 C   0  0  0  0  0  0  0  0  0  0  0  0
    3.8040   58.6140   75.9790 O   0  0  0  0  0  0  0  0  0  0  0  0
    2.4340   56.8690   75.4510 O   0  0  0  0  0  1  0  0  0  0  0  0
    5.4630   55.2220   79.7110 O   0  0  0  0  0  0  0  0  0  0  0  0
    2.1190   55.8130   80.7280 O   0  0  0  0  0  0  0  0  0  0  0  0
    1.5590   55.6730   77.7530 O   0  0  0  0  0  0  0  0  0  0  0  0
    0.6317   61.5478   78.2066 H   0  0  0  0  0  0  0  0  0  0  0  0
    1.1650   60.8052   75.9604 H   0  0  0  0  0  0  0  0  0  0  0  0
    0.3481   59.2094   76.2905 H   0  0  0  0  0  0  0  0  0  0  0  0
   -0.9643   61.9465   76.1502 H   0  0  0  0  0  0  0  0  0  0  0  0
   -1.0902   60.5530   74.9626 H   0  0  0  0  0  0  0  0  0  0  0  0
   -1.7806   61.5772   78.4245 H   0  0  0  0  0  0  0  0  0  0  0  0
   -0.5684   58.0353   79.9633 H   0  0  0  0  0  0  0  0  0  0  0  0
   -1.4652   57.9578   78.4088 H   0  0  0  0  0  0  0  0  0  0  0  0
    0.3307   57.9939   78.4088 H   0  0  0  0  0  0  0  0  0  0  0  0
   -0.7426   59.6272   81.0162 H   0  0  0  0  0  0  0  0  0  0  0  0
    0.7076   60.5410   80.4791 H   0  0  0  0  0  0  0  0  0  0  0  0
   -0.9044   61.3336   80.4791 H   0  0  0  0  0  0  0  0  0  0  0  0
   -3.4751   59.0999   78.9671 H   0  0  0  0  0  0  0  0  0  0  0  0
   -2.9530   60.2981   80.2140 H   0  0  0  0  0  0  0  0  0  0  0  0
   -5.2417   60.7481   79.3953 H   0  0  0  0  0  0  0  0  0  0  0  0
   -4.0536   62.0838   78.9864 H   0  0  0  0  0  0  0  0  0  0  0  0
   -3.1030   62.1609   76.5698 H   0  0  0  0  0  0  0  0  0  0  0  0
   -5.5939   61.5862   73.4739 H   0  0  0  0  0  0  0  0  0  0  0  0
   -5.1483   63.7877   78.2436 H   0  0  0  0  0  0  0  0  0  0  0  0
   -4.2306   63.6468   76.7059 H   0  0  0  0  0  0  0  0  0  0  0  0
   -5.8791   64.3604   76.7059 H   0  0  0  0  0  0  0  0  0  0  0  0
   -7.3580   61.0324   77.9683 H   0  0  0  0  0  0  0  0  0  0  0  0
   -6.8440   62.6019   78.7765 H   0  0  0  0  0  0  0  0  0  0  0  0
   -9.1911   62.6069   77.9639 H   0  0  0  0  0  0  0  0  0  0  0  0
   -8.1127   63.8867   77.2491 H   0  0  0  0  0  0  0  0  0  0  0  0
   -7.7805   62.0590   73.9948 H   0  0  0  0  0  0  0  0  0  0  0  0
   -7.0639   64.6937   75.3577 H   0  0  0  0  0  0  0  0  0  0  0  0
   -6.7025   64.1587   73.6446 H   0  0  0  0  0  0  0  0  0  0  0  0
   -8.4400   66.7751   74.6811 H   0  0  0  0  0  0  0  0  0  0  0  0
   -7.5886   66.3825   73.1489 H   0  0  0  0  0  0  0  0  0  0  0  0
   -9.3671   66.6350   73.1489 H   0  0  0  0  0  0  0  0  0  0  0  0
   -9.5067   65.0968   75.9713 H   0  0  0  0  0  0  0  0  0  0  0  0
  -10.7581   64.9490   74.6705 H   0  0  0  0  0  0  0  0  0  0  0  0
  -10.7482   63.0130   76.2170 H   0  0  0  0  0  0  0  0  0  0  0  0
  -10.3362   62.5838   74.4827 H   0  0  0  0  0  0  0  0  0  0  0  0
   -9.1273   60.4822   76.9066 H   0  0  0  0  0  0  0  0  0  0  0  0
  -10.0050   60.6726   75.3509 H   0  0  0  0  0  0  0  0  0  0  0  0
   -8.2504   60.2878   75.3509 H   0  0  0  0  0  0  0  0  0  0  0  0
   -5.6756   59.1373   78.0479 H   0  0  0  0  0  0  0  0  0  0  0  0
   -6.3913   59.7228   76.5079 H   0  0  0  0  0  0  0  0  0  0  0  0
   -4.7705   58.9483   76.5079 H   0  0  0  0  0  0  0  0  0  0  0  0
   -2.4930   58.1912   77.2746 H   0  0  0  0  0  0  0  0  0  0  0  0
   -3.3354   58.6988   75.7715 H   0  0  0  0  0  0  0  0  0  0  0  0
   -1.5526   58.4791   75.7715 H   0  0  0  0  0  0  0  0  0  0  0  0
    4.7367   60.4259   81.1296 H   0  0  0  0  0  0  0  0  0  0  0  0
    4.5437   59.6694   78.1589 H   0  0  0  0  0  0  0  0  0  0  0  0
    3.0297   61.3747   77.9861 H   0  0  0  0  0  0  0  0  0  0  0  0
    3.1416   62.6405   81.3224 H   0  0  0  0  0  0  0  0  0  0  0  0
    4.9865   62.4828   78.8757 H   0  0  0  0  0  0  0  0  0  0  0  0
    6.8597   60.2532   80.7165 H   0  0  0  0  0  0  0  0  0  0  0  0
    5.4666   62.7274   81.7171 H   0  0  0  0  0  0  0  0  0  0  0  0
    5.7648   57.8791   79.9516 H   0  0  0  0  0  0  0  0  0  0  0  0
    4.1323   55.7242   77.1856 H   0  0  0  0  0  0  0  0  0  0  0  0
    2.1464   57.4371   78.6756 H   0  0  0  0  0  0  0  0  0  0  0  0
    3.1625   54.6551   79.3542 H   0  0  0  0  0  0  0  0  0  0  0  0
    4.4381   56.2774   81.2130 H   0  0  0  0  0  0  0  0  0  0  0  0
    5.8802   54.8219   80.5147 H   0  0  0  0  0  0  0  0  0  0  0  0
    2.5967   55.7617   81.5936 H   0  0  0  0  0  0  0  0  0  0  0  0
    0.9965   55.2359   78.4405 H   0  0  0  0  0  0  0  0  0  0  0  0
  2  1  1  0
  3  2  1  0
  4  3  1  0
  5  4  1  0
  6  5  1  0
  6  1  1  0
  7  6  1  0
  8  6  1  0
  9  5  1  0
 10  9  1  0
 11 10  1  0
 12 11  1  0
 12  4  1  0
 13 12  1  0
 14 13  2  0
 15 13  1  0
 16 15  2  0
 17 16  1  0
 17 11  1  0
 17 18  1  6
 19 17  1  0
 20 19  1  0
 21 20  1  0
 22 21  1  0
 22 16  1  0
 23 22  1  0
 24 23  1  0
 24 25  1  6
 26 24  1  0
 27 26  1  0
 27 21  1  0
 21 28  1  1
 11 29  1  1
  4 30  1  1
 31 24  1  0
 32 31  2  0
 33 31  1  0
 34  1  1  0
 36 35  1  0
 37 36  1  0
 37 34  1  0
 38 37  1  0
 39 38  1  0
 40 39  1  0
 40 35  1  0
 41 39  1  0
 42 41  2  0
 43 41  1  0
 44 35  1  0
 45 40  1  0
 46 36  1  0
 47 46  1  0
 48 47  1  0
 49 48  1  0
 50 49  1  0
 51 50  1  0
 52 47  1  0
 52 51  1  0
 53 49  1  0
 54 53  2  0
 55 53  1  0
 56 52  1  0
 57 51  1  0
 58 50  1  0
  1 59  1  6
  2 60  1  0
  2 61  1  0
  3 62  1  0
  3 63  1  0
  5 64  1  6
  7 65  1  0
  7 66  1  0
  7 67  1  0
  8 68  1  0
  8 69  1  0
  8 70  1  0
  9 71  1  0
  9 72  1  0
 10 73  1  0
 10 74  1  0
 12 75  1  6
 15 76  1  0
 18 77  1  0
 18 78  1  0
 18 79  1  0
 19 80  1  0
 19 81  1  0
 20 82  1  0
 20 83  1  0
 22 84  1  6
 23 85  1  0
 23 86  1  0
 25 87  1  0
 25 88  1  0
 25 89  1  0
 26 90  1  0
 26 91  1  0
 27 92  1  0
 27 93  1  0
 28 94  1  0
 28 95  1  0
 28 96  1  0
 29 97  1  0
 29 98  1  0
 29 99  1  0
 30100  1  0
 30101  1  0
 30102  1  0
 35103  1  1
 36104  1  6
 37105  1  6
 39106  1  1
 40107  1  6
 44108  1  0
 45109  1  0
 47110  1  1
 49111  1  6
 50112  1  1
 51113  1  6
 52114  1  1
 56115  1  0
 57116  1  0
 58117  1  0
M  CHG  3  33  -1  43  -1  55  -1
M  END
>  <score>  (8) 
-6.447

$$$$
=
     RDKit          3D

117123  0  0  0  0  0  0  0  0999 V2000
    1.0820   60.8120   75.0390 C   0  0  1  0  0  0  0  0  0  0  0  0
   -0.0020   60.0730   74.2520 C   0  0  0  0  0  0  0  0  0  0  0  0
   -1.3700   60.7540   74.3360 C   0  0  0  0  0  0  0  0  0  0  0  0
   -1.8900   60.9900   75.7910 C   0  0  1  0  0  0  0  0  0  0  0  0
   -0.7370   61.7490   76.5590 C   0  0  2  0  0  0  0  0  0  0  0  0
    0.6830   61.0690   76.5260 C   0  0  0  0  0  0  0  0  0  0  0  0
    0.7820   59.7800   77.3700 C   0  0  0  0  0  0  0  0  0  0  0  0
    1.7470   62.0400   77.1130 C   0  0  0  0  0  0  0  0  0  0  0  0
   -1.1960   62.2010   77.9570 C   0  0  0  0  0  0  0  0  0  0  0  0
   -2.3750   63.1700   77.8560 C   0  0  0  0  0  0  0  0  0  0  0  0
   -3.6100   62.6000   77.1120 C   0  0  2  0  0  0  0  0  0  0  0  0
   -3.1650   61.9490   75.7470 C   0  0  2  0  0  0  0  0  0  0  0  0
   -4.4090   61.3810   75.0380 C   0  0  0  0  0  0  0  0  0  0  0  0
   -4.3900   60.3990   74.2970 O   0  0  0  0  0  0  0  0  0  0  0  0
   -5.7130   62.0750   75.2240 C   0  0  0  0  0  0  0  0  0  0  0  0
   -5.8800   63.1560   76.0140 C   0  0  0  0  0  0  0  0  0  0  0  0
   -4.7000   63.7690   76.7910 C   0  0  2  0  0  0  0  0  0  0  0  0
   -4.1060   64.8810   75.8710 C   0  0  0  0  0  0  0  0  0  0  0  0
   -5.1450   64.4790   78.1060 C   0  0  0  0  0  0  0  0  0  0  0  0
   -6.4740   65.2300   78.0150 C   0  0  0  0  0  0  0  0  0  0  0  0
   -7.6280   64.3350   77.5100 C   0  0  2  0  0  0  0  0  0  0  0  0
   -7.2840   63.7860   76.0960 C   0  0  1  0  0  0  0  0  0  0  0  0
   -7.4780   64.8270   74.9670 C   0  0  0  0  0  0  0  0  0  0  0  0
   -8.8410   65.5420   75.0020 C   0  0  2  0  0  0  0  0  0  0  0  0
   -8.8720   66.6300   73.9140 C   0  0  0  0  0  0  0  0  0  0  0  0
   -9.0380   66.1850   76.3800 C   0  0  0  0  0  0  0  0  0  0  0  0
   -8.9490   65.1480   77.4970 C   0  0  0  0  0  0  0  0  0  0  0  0
   -7.8530   63.1570   78.4920 C   0  0  0  0  0  0  0  0  0  0  0  0
   -4.2390   61.5260   78.0610 C   0  0  0  0  0  0  0  0  0  0  0  0
   -2.2410   59.6160   76.4130 C   0  0  0  0  0  0  0  0  0  0  0  0
  -10.0540   64.6410   74.6150 C   0  0  0  0  0  0  0  0  0  0  0  0
  -10.4790   64.7710   73.4300 O   0  0  0  0  0  0  0  0  0  0  0  0
  -10.4790   63.8700   75.5210 O   0  0  0  0  0  1  0  0  0  0  0  0
    2.2810   60.0260   75.0030 O   0  0  0  0  0  0  0  0  0  0  0  0
    2.6440   57.6520   72.1050 C   0  0  2  0  0  0  0  0  0  0  0  0
    1.8900   58.3660   73.2420 C   0  0  2  0  0  0  0  0  0  0  0  0
    2.6680   59.6420   73.6840 C   0  0  2  0  0  0  0  0  0  0  0  0
    4.0750   59.4160   73.5940 O   0  0  0  0  0  0  0  0  0  0  0  0
    4.5250   59.2740   72.2260 C   0  0  1  0  0  0  0  0  0  0  0  0
    3.4870   58.6310   71.2970 C   0  0  1  0  0  0  0  0  0  0  0  0
    4.8360   60.6120   71.5120 C   0  0  0  0  0  0  0  0  0  0  0  0
    5.0080   60.4840   70.2560 O   0  0  0  0  0  0  0  0  0  0  0  0
    4.8240   61.6630   72.2070 O   0  0  0  0  0  1  0  0  0  0  0  0
    1.7010   56.9880   71.2360 O   0  0  0  0  0  0  0  0  0  0  0  0
    4.1180   57.9340   70.2060 O   0  0  0  0  0  0  0  0  0  0  0  0
    1.7120   57.3530   74.2530 O   0  0  0  0  0  0  0  0  0  0  0  0
    0.4150   56.7830   74.3630 C   0  0  2  0  0  0  0  0  0  0  0  0
    0.0480   56.6640   75.7510 O   0  0  0  0  0  0  0  0  0  0  0  0
    0.6690   55.5710   76.4820 C   0  0  1  0  0  0  0  0  0  0  0  0
    1.7720   54.8370   75.7050 C   0  0  2  0  0  0  0  0  0  0  0  0
    1.2190   54.3680   74.3450 C   0  0  1  0  0  0  0  0  0  0  0  0
    0.2500   55.3880   73.7150 C   0  0  1  0  0  0  0  0  0  0  0  0
    1.1590   56.0360   77.8880 C   0  0  0  0  0  0  0  0  0  0  0  0
    0.2490   56.4630   78.6680 O   0  0  0  0  0  0  0  0  0  0  0  0
    2.4110   56.0550   78.0720 O   0  0  0  0  0  1  0  0  0  0  0  0
   -1.1160   54.9380   73.9020 O   0  0  0  0  0  0  0  0  0  0  0  0
    2.2850   54.0620   73.4250 O   0  0  0  0  0  0  0  0  0  0  0  0
    2.2480   53.6880   76.4310 O   0  0  0  0  0  0  0  0  0  0  0  0
    1.2275   61.7962   74.5697 H   0  0  0  0  0  0  0  0  0  0  0  0
    0.3020   60.0258   73.1959 H   0  0  0  0  0  0  0  0  0  0  0  0
   -0.1050   59.0711   74.6943 H   0  0  0  0  0  0  0  0  0  0  0  0
   -1.2988   61.7303   73.8343 H   0  0  0  0  0  0  0  0  0  0  0  0
   -2.0876   60.0734   73.8546 H   0  0  0  0  0  0  0  0  0  0  0  0
   -0.5512   62.6587   75.9692 H   0  0  0  0  0  0  0  0  0  0  0  0
    0.7621   60.0392   78.4389 H   0  0  0  0  0  0  0  0  0  0  0  0
   -0.0683   59.1225   77.1362 H   0  0  0  0  0  0  0  0  0  0  0  0
    1.7227   59.2600   77.1362 H   0  0  0  0  0  0  0  0  0  0  0  0
    1.7087   62.0051   78.2118 H   0  0  0  0  0  0  0  0  0  0  0  0
    2.7478   61.7374   76.7712 H   0  0  0  0  0  0  0  0  0  0  0  0
    1.5369   63.0642   76.7712 H   0  0  0  0  0  0  0  0  0  0  0  0
   -1.5032   61.3190   78.5381 H   0  0  0  0  0  0  0  0  0  0  0  0
   -0.3595   62.7149   78.4531 H   0  0  0  0  0  0  0  0  0  0  0  0
   -2.6837   63.4438   78.8757 H   0  0  0  0  0  0  0  0  0  0  0  0
   -2.0243   64.0313   77.2685 H   0  0  0  0  0  0  0  0  0  0  0  0
   -2.7455   62.7515   75.1225 H   0  0  0  0  0  0  0  0  0  0  0  0
   -6.5899   61.6843   74.6870 H   0  0  0  0  0  0  0  0  0  0  0  0
   -3.6784   65.6815   76.4926 H   0  0  0  0  0  0  0  0  0  0  0  0
   -3.3183   64.4495   75.2360 H   0  0  0  0  0  0  0  0  0  0  0  0
   -4.9027   65.2958   75.2360 H   0  0  0  0  0  0  0  0  0  0  0  0
   -5.2374   63.7152   78.8922 H   0  0  0  0  0  0  0  0  0  0  0  0
   -4.3772   65.2364   78.3224 H   0  0  0  0  0  0  0  0  0  0  0  0
   -6.7336   65.6094   79.0143 H   0  0  0  0  0  0  0  0  0  0  0  0
   -6.3457   66.0486   77.2915 H   0  0  0  0  0  0  0  0  0  0  0  0
   -8.0184   62.9838   75.9314 H   0  0  0  0  0  0  0  0  0  0  0  0
   -6.6869   65.5860   75.0566 H   0  0  0  0  0  0  0  0  0  0  0  0
   -7.4315   64.2770   74.0155 H   0  0  0  0  0  0  0  0  0  0  0  0
   -8.9003   67.6221   74.3883 H   0  0  0  0  0  0  0  0  0  0  0  0
   -7.9712   66.5484   73.2880 H   0  0  0  0  0  0  0  0  0  0  0  0
   -9.7667   66.4972   73.2880 H   0  0  0  0  0  0  0  0  0  0  0  0
   -8.2584   66.9454   76.5348 H   0  0  0  0  0  0  0  0  0  0  0  0
  -10.0389   66.6402   76.4095 H   0  0  0  0  0  0  0  0  0  0  0  0
   -9.0412   65.6708   78.4604 H   0  0  0  0  0  0  0  0  0  0  0  0
   -9.7609   64.4267   77.3224 H   0  0  0  0  0  0  0  0  0  0  0  0
   -7.7830   63.5237   79.5267 H   0  0  0  0  0  0  0  0  0  0  0  0
   -8.8501   62.7242   78.3231 H   0  0  0  0  0  0  0  0  0  0  0  0
   -7.0857   62.3872   78.3231 H   0  0  0  0  0  0  0  0  0  0  0  0
   -4.0686   61.8170   79.1080 H   0  0  0  0  0  0  0  0  0  0  0  0
   -5.3203   61.4570   77.8710 H   0  0  0  0  0  0  0  0  0  0  0  0
   -3.7702   60.5492   77.8710 H   0  0  0  0  0  0  0  0  0  0  0  0
   -2.2210   59.6943   77.5100 H   0  0  0  0  0  0  0  0  0  0  0  0
   -3.2459   59.3112   76.0854 H   0  0  0  0  0  0  0  0  0  0  0  0
   -1.5055   58.8666   76.0854 H   0  0  0  0  0  0  0  0  0  0  0  0
    3.3199   56.9108   72.5564 H   0  0  0  0  0  0  0  0  0  0  0  0
    0.9030   58.7621   72.9612 H   0  0  0  0  0  0  0  0  0  0  0  0
    2.4160   60.4717   73.0072 H   0  0  0  0  0  0  0  0  0  0  0  0
    5.4229   58.6539   72.3645 H   0  0  0  0  0  0  0  0  0  0  0  0
    2.8562   59.4257   70.8720 H   0  0  0  0  0  0  0  0  0  0  0  0
    1.0262   56.5129   71.7829 H   0  0  0  0  0  0  0  0  0  0  0  0
    4.7371   57.2501   70.5653 H   0  0  0  0  0  0  0  0  0  0  0  0
   -0.2381   57.4738   73.8096 H   0  0  0  0  0  0  0  0  0  0  0  0
   -0.1240   54.8217   76.6225 H   0  0  0  0  0  0  0  0  0  0  0  0
    2.6086   55.5367   75.5620 H   0  0  0  0  0  0  0  0  0  0  0  0
    0.6467   53.4503   74.5456 H   0  0  0  0  0  0  0  0  0  0  0  0
    0.4816   55.4667   72.6426 H   0  0  0  0  0  0  0  0  0  0  0  0
   -1.3125   54.8733   74.8701 H   0  0  0  0  0  0  0  0  0  0  0  0
    3.1019   53.8275   73.9327 H   0  0  0  0  0  0  0  0  0  0  0  0
    2.1770   53.8594   77.4035 H   0  0  0  0  0  0  0  0  0  0  0  0
  2  1  1  0
  3  2  1  0
  4  3  1  0
  5  4  1  0
  6  5  1  0
  6  1  1  0
  7  6  1  0
  8  6  1  0
  9  5  1  0
 10  9  1  0
 11 10  1  0
 12 11  1  0
 12  4  1  0
 13 12  1  0
 14 13  2  0
 15 13  1  0
 16 15  2  0
 17 16  1  0
 17 11  1  0
 17 18  1  6
 19 17  1  0
 20 19  1  0
 21 20  1  0
 22 21  1  0
 22 16  1  0
 23 22  1  0
 24 23  1  0
 24 25  1  6
 26 24  1  0
 27 26  1  0
 27 21  1  0
 21 28  1  1
 11 29  1  1
  4 30  1  1
 31 24  1  0
 32 31  2  0
 33 31  1  0
 34  1  1  0
 36 35  1  0
 37 36  1  0
 37 34  1  0
 38 37  1  0
 39 38  1  0
 40 39  1  0
 40 35  1  0
 41 39  1  0
 42 41  2  0
 43 41  1  0
 44 35  1  0
 45 40  1  0
 46 36  1  0
 47 46  1  0
 48 47  1  0
 49 48  1  0
 50 49  1  0
 51 50  1  0
 52 47  1  0
 52 51  1  0
 53 49  1  0
 54 53  2  0
 55 53  1  0
 56 52  1  0
 57 51  1  0
 58 50  1  0
  1 59  1  6
  2 60  1  0
  2 61  1  0
  3 62  1  0
  3 63  1  0
  5 64  1  6
  7 65  1  0
  7 66  1  0
  7 67  1  0
  8 68  1  0
  8 69  1  0
  8 70  1  0
  9 71  1  0
  9 72  1  0
 10 73  1  0
 10 74  1  0
 12 75  1  6
 15 76  1  0
 18 77  1  0
 18 78  1  0
 18 79  1  0
 19 80  1  0
 19 81  1  0
 20 82  1  0
 20 83  1  0
 22 84  1  6
 23 85  1  0
 23 86  1  0
 25 87  1  0
 25 88  1  0
 25 89  1  0
 26 90  1  0
 26 91  1  0
 27 92  1  0
 27 93  1  0
 28 94  1  0
 28 95  1  0
 28 96  1  0
 29 97  1  0
 29 98  1  0
 29 99  1  0
 30100  1  0
 30101  1  0
 30102  1  0
 35103  1  1
 36104  1  6
 37105  1  6
 39106  1  1
 40107  1  6
 44108  1  0
 45109  1  0
 47110  1  6
 49111  1  1
 50112  1  6
 51113  1  1
 52114  1  6
 56115  1  0
 57116  1  0
 58117  1  0
M  CHG  3  33  -1  43  -1  55  -1
M  END
>  <score>  (9) 
-6.042

$$$$
