=
     RDKit          3D

 38 39  0  0  0  0  0  0  0  0999 V2000
    5.3780   70.3950   67.6360 C   0  0  0  0  0  0  0  0  0  0  0  0
    6.2170   70.4180   66.5180 C   0  0  0  0  0  0  0  0  0  0  0  0
    5.7770   69.9120   65.2950 C   0  0  0  0  0  0  0  0  0  0  0  0
    4.4940   69.3850   65.1780 C   0  0  0  0  0  0  0  0  0  0  0  0
    3.6320   69.3580   66.2830 C   0  0  0  0  0  0  0  0  0  0  0  0
    4.0830   69.8450   67.5280 C   0  0  0  0  0  0  0  0  0  0  0  0
    3.1640   69.8450   68.7310 C   0  0  0  0  0  0  0  0  0  0  0  0
    1.9760   68.8980   68.5960 C   0  0  0  0  0  0  0  0  0  0  0  0
    1.2830   69.0950   67.2490 C   0  0  1  0  0  0  0  0  0  0  0  0
    2.2570   68.7560   66.1090 C   0  0  0  0  0  0  0  0  0  0  0  0
    0.0750   68.2750   67.1900 N   0  0  0  0  0  0  0  0  0  0  0  0
   -1.1210   68.8150   66.7900 C   0  0  0  0  0  0  0  0  0  0  0  0
   -1.2380   69.9990   66.4860 O   0  0  0  0  0  0  0  0  0  0  0  0
   -2.1770   67.9120   66.7490 N   0  0  0  0  0  0  0  0  0  0  0  0
   -2.2350   66.7080   67.5670 C   0  0  0  0  0  0  0  0  0  0  0  0
   -3.4620   68.4290   66.3100 C   0  0  0  0  0  0  0  0  0  0  0  0
    7.1010   70.9240   69.2020 C   0  0  0  0  0  0  0  0  0  0  0  0
    5.7190   70.8790   68.8730 O   0  0  0  0  0  0  0  0  0  0  0  0
    7.2302   70.8377   66.6034 H   0  0  0  0  0  0  0  0  0  0  0  0
    6.4451   69.9294   64.4213 H   0  0  0  0  0  0  0  0  0  0  0  0
    4.1539   68.9866   64.2108 H   0  0  0  0  0  0  0  0  0  0  0  0
    3.7479   69.5457   69.6139 H   0  0  0  0  0  0  0  0  0  0  0  0
    2.7551   70.8621   68.8227 H   0  0  0  0  0  0  0  0  0  0  0  0
    2.3308   67.8596   68.6718 H   0  0  0  0  0  0  0  0  0  0  0  0
    1.2570   69.1135   69.4001 H   0  0  0  0  0  0  0  0  0  0  0  0
    0.9821   70.1467   67.1337 H   0  0  0  0  0  0  0  0  0  0  0  0
    2.3614   67.6623   66.0556 H   0  0  0  0  0  0  0  0  0  0  0  0
    1.8340   69.1837   65.1881 H   0  0  0  0  0  0  0  0  0  0  0  0
    0.1220   67.2799   67.4518 H   0  0  0  0  0  0  0  0  0  0  0  0
   -2.2216   66.9866   68.6310 H   0  0  0  0  0  0  0  0  0  0  0  0
   -3.1607   66.1573   67.3438 H   0  0  0  0  0  0  0  0  0  0  0  0
   -1.3665   66.0709   67.3438 H   0  0  0  0  0  0  0  0  0  0  0  0
   -4.0770   68.6764   67.1878 H   0  0  0  0  0  0  0  0  0  0  0  0
   -3.3057   69.3342   65.7049 H   0  0  0  0  0  0  0  0  0  0  0  0
   -3.9762   67.6678   65.7049 H   0  0  0  0  0  0  0  0  0  0  0  0
    7.2176   70.9278   70.2958 H   0  0  0  0  0  0  0  0  0  0  0  0
    7.6067   70.0418   68.7824 H   0  0  0  0  0  0  0  0  0  0  0  0
    7.5483   71.8372   68.7824 H   0  0  0  0  0  0  0  0  0  0  0  0
  2  1  2  0
  3  2  1  0
  4  3  2  0
  5  4  1  0
  6  5  2  0
  6  1  1  0
  7  6  1  0
  8  7  1  0
  9  8  1  0
 10  9  1  0
 10  5  1  0
 11  9  1  0
 12 11  1  0
 13 12  2  0
 14 12  1  0
 15 14  1  0
 16 14  1  0
 18  1  1  0
 18 17  1  0
  2 19  1  0
  3 20  1  0
  4 21  1  0
  7 22  1  0
  7 23  1  0
  8 24  1  0
  8 25  1  0
  9 26  1  6
 10 27  1  0
 10 28  1  0
 11 29  1  0
 15 30  1  0
 15 31  1  0
 15 32  1  0
 16 33  1  0
 16 34  1  0
 16 35  1  0
 17 36  1  0
 17 37  1  0
 17 38  1  0
M  END
>  <score>  (1) 
-8.974

$$$$
=
     RDKit          3D

 38 39  0  0  0  0  0  0  0  0999 V2000
    5.5850   69.1420   65.1430 C   0  0  0  0  0  0  0  0  0  0  0  0
    6.3860   69.6990   66.1430 C   0  0  0  0  0  0  0  0  0  0  0  0
    5.8190   70.1330   67.3410 C   0  0  0  0  0  0  0  0  0  0  0  0
    4.4500   70.0080   67.5510 C   0  0  0  0  0  0  0  0  0  0  0  0
    3.6260   69.4460   66.5660 C   0  0  0  0  0  0  0  0  0  0  0  0
    4.1920   69.0290   65.3420 C   0  0  0  0  0  0  0  0  0  0  0  0
    3.3280   68.4010   64.2710 C   0  0  0  0  0  0  0  0  0  0  0  0
    1.8390   68.6870   64.4370 C   0  0  0  0  0  0  0  0  0  0  0  0
    1.3960   68.4130   65.8720 C   0  0  1  0  0  0  0  0  0  0  0  0
    2.1430   69.3520   66.8340 C   0  0  0  0  0  0  0  0  0  0  0  0
   -0.0530   68.5680   65.9820 N   0  0  0  0  0  0  0  0  0  0  0  0
   -0.7960   67.7020   66.7440 C   0  0  0  0  0  0  0  0  0  0  0  0
   -0.2920   66.7590   67.3460 O   0  0  0  0  0  0  0  0  0  0  0  0
   -2.1550   67.9900   66.7820 N   0  0  0  0  0  0  0  0  0  0  0  0
   -2.8550   68.7080   65.7250 C   0  0  0  0  0  0  0  0  0  0  0  0
   -2.9840   67.1150   67.5950 C   0  0  0  0  0  0  0  0  0  0  0  0
    5.7050   69.4110   62.7730 C   0  0  0  0  0  0  0  0  0  0  0  0
    6.0540   68.6780   63.9400 O   0  0  0  0  0  0  0  0  0  0  0  0
    7.4702   69.7958   65.9845 H   0  0  0  0  0  0  0  0  0  0  0  0
    6.4559   70.5751   68.1213 H   0  0  0  0  0  0  0  0  0  0  0  0
    4.0099   70.3531   68.4982 H   0  0  0  0  0  0  0  0  0  0  0  0
    3.6493   68.7900   63.2935 H   0  0  0  0  0  0  0  0  0  0  0  0
    3.4567   67.3116   64.3527 H   0  0  0  0  0  0  0  0  0  0  0  0
    1.6442   69.7419   64.1937 H   0  0  0  0  0  0  0  0  0  0  0  0
    1.2740   68.0297   63.7598 H   0  0  0  0  0  0  0  0  0  0  0  0
    1.6451   67.3778   66.1483 H   0  0  0  0  0  0  0  0  0  0  0  0
    1.7096   70.3588   66.7420 H   0  0  0  0  0  0  0  0  0  0  0  0
    2.0263   68.9337   67.8446 H   0  0  0  0  0  0  0  0  0  0  0  0
   -0.5221   69.3364   65.4816 H   0  0  0  0  0  0  0  0  0  0  0  0
   -3.5564   69.4274   66.1728 H   0  0  0  0  0  0  0  0  0  0  0  0
   -2.1255   69.2463   65.1021 H   0  0  0  0  0  0  0  0  0  0  0  0
   -3.4116   67.9924   65.1021 H   0  0  0  0  0  0  0  0  0  0  0  0
   -2.7942   67.3153   68.6598 H   0  0  0  0  0  0  0  0  0  0  0  0
   -4.0445   67.3016   67.3701 H   0  0  0  0  0  0  0  0  0  0  0  0
   -2.7405   66.0661   67.3701 H   0  0  0  0  0  0  0  0  0  0  0  0
    5.2490   70.3687   63.0643 H   0  0  0  0  0  0  0  0  0  0  0  0
    6.6089   69.6018   62.1759 H   0  0  0  0  0  0  0  0  0  0  0  0
    4.9871   68.8296   62.1759 H   0  0  0  0  0  0  0  0  0  0  0  0
  2  1  2  0
  3  2  1  0
  4  3  2  0
  5  4  1  0
  6  5  2  0
  6  1  1  0
  7  6  1  0
  8  7  1  0
  9  8  1  0
 10  9  1  0
 10  5  1  0
 11  9  1  0
 12 11  1  0
 13 12  2  0
 14 12  1  0
 15 14  1  0
 16 14  1  0
 18  1  1  0
 18 17  1  0
  2 19  1  0
  3 20  1  0
  4 21  1  0
  7 22  1  0
  7 23  1  0
  8 24  1  0
  8 25  1  0
  9 26  1  1
 10 27  1  0
 10 28  1  0
 11 29  1  0
 15 30  1  0
 15 31  1  0
 15 32  1  0
 16 33  1  0
 16 34  1  0
 16 35  1  0
 17 36  1  0
 17 37  1  0
 17 38  1  0
M  END
>  <score>  (2) 
-8.198

$$$$
=
     RDKit          3D

 38 39  0  0  0  0  0  0  0  0999 V2000
    3.3340   61.8880   72.8670 C   0  0  0  0  0  0  0  0  0  0  0  0
    4.6430   61.5380   72.5260 C   0  0  0  0  0  0  0  0  0  0  0  0
    5.2360   62.0610   71.3770 C   0  0  0  0  0  0  0  0  0  0  0  0
    4.5280   62.9400   70.5640 C   0  0  0  0  0  0  0  0  0  0  0  0
    3.2160   63.3120   70.8900 C   0  0  0  0  0  0  0  0  0  0  0  0
    2.6040   62.7650   72.0370 C   0  0  0  0  0  0  0  0  0  0  0  0
    1.1960   63.1660   72.4220 C   0  0  0  0  0  0  0  0  0  0  0  0
    0.4000   63.7850   71.2770 C   0  0  0  0  0  0  0  0  0  0  0  0
    1.2180   64.8710   70.5810 C   0  0  1  0  0  0  0  0  0  0  0  0
    2.4830   64.2530   69.9630 C   0  0  0  0  0  0  0  0  0  0  0  0
    0.3960   65.5400   69.5740 N   0  0  0  0  0  0  0  0  0  0  0  0
    0.7030   66.8070   69.1460 C   0  0  0  0  0  0  0  0  0  0  0  0
    1.6560   67.4390   69.5940 O   0  0  0  0  0  0  0  0  0  0  0  0
   -0.1440   67.3050   68.1630 N   0  0  0  0  0  0  0  0  0  0  0  0
   -1.5230   66.8650   67.9940 C   0  0  0  0  0  0  0  0  0  0  0  0
    0.1520   68.6350   67.6590 C   0  0  0  0  0  0  0  0  0  0  0  0
    2.8860   60.0820   74.3640 C   0  0  0  0  0  0  0  0  0  0  0  0
    2.6740   61.4350   73.9810 O   0  0  0  0  0  0  0  0  0  0  0  0
    5.2089   60.8462   73.1672 H   0  0  0  0  0  0  0  0  0  0  0  0
    6.2657   61.7778   71.1132 H   0  0  0  0  0  0  0  0  0  0  0  0
    5.0012   63.3466   69.6580 H   0  0  0  0  0  0  0  0  0  0  0  0
    0.6627   62.2694   72.7709 H   0  0  0  0  0  0  0  0  0  0  0  0
    1.2830   63.9337   73.2050 H   0  0  0  0  0  0  0  0  0  0  0  0
    0.1451   63.0013   70.5484 H   0  0  0  0  0  0  0  0  0  0  0  0
   -0.5162   64.2369   71.6849 H   0  0  0  0  0  0  0  0  0  0  0  0
    1.5355   65.6273   71.3139 H   0  0  0  0  0  0  0  0  0  0  0  0
    2.1914   63.6946   69.0612 H   0  0  0  0  0  0  0  0  0  0  0  0
    3.1695   65.0831   69.7399 H   0  0  0  0  0  0  0  0  0  0  0  0
   -0.4231   65.0546   69.1812 H   0  0  0  0  0  0  0  0  0  0  0  0
   -1.9845   66.7177   68.9816 H   0  0  0  0  0  0  0  0  0  0  0  0
   -2.0857   67.6282   67.4364 H   0  0  0  0  0  0  0  0  0  0  0  0
   -1.5397   65.9169   67.4364 H   0  0  0  0  0  0  0  0  0  0  0  0
    0.3049   69.3219   68.5045 H   0  0  0  0  0  0  0  0  0  0  0  0
    1.0643   68.6000   67.0455 H   0  0  0  0  0  0  0  0  0  0  0  0
   -0.6891   68.9902   67.0455 H   0  0  0  0  0  0  0  0  0  0  0  0
    2.8974   60.0091   75.4615 H   0  0  0  0  0  0  0  0  0  0  0  0
    2.0750   59.4561   73.9634 H   0  0  0  0  0  0  0  0  0  0  0  0
    3.8496   59.7342   73.9634 H   0  0  0  0  0  0  0  0  0  0  0  0
  2  1  2  0
  3  2  1  0
  4  3  2  0
  5  4  1  0
  6  5  2  0
  6  1  1  0
  7  6  1  0
  8  7  1  0
  9  8  1  0
 10  9  1  0
 10  5  1  0
 11  9  1  0
 12 11  1  0
 13 12  2  0
 14 12  1  0
 15 14  1  0
 16 14  1  0
 18  1  1  0
 18 17  1  0
  2 19  1  0
  3 20  1  0
  4 21  1  0
  7 22  1  0
  7 23  1  0
  8 24  1  0
  8 25  1  0
  9 26  1  1
 10 27  1  0
 10 28  1  0
 11 29  1  0
 15 30  1  0
 15 31  1  0
 15 32  1  0
 16 33  1  0
 16 34  1  0
 16 35  1  0
 17 36  1  0
 17 37  1  0
 17 38  1  0
M  END
>  <score>  (3) 
-7.874

$$$$
=
     RDKit          3D

 38 39  0  0  0  0  0  0  0  0999 V2000
    5.3110   69.9630   65.3020 C   0  0  0  0  0  0  0  0  0  0  0  0
    5.8270   69.6870   64.0330 C   0  0  0  0  0  0  0  0  0  0  0  0
    5.0950   68.9210   63.1260 C   0  0  0  0  0  0  0  0  0  0  0  0
    3.8410   68.4310   63.4770 C   0  0  0  0  0  0  0  0  0  0  0  0
    3.3000   68.7020   64.7420 C   0  0  0  0  0  0  0  0  0  0  0  0
    4.0480   69.4540   65.6720 C   0  0  0  0  0  0  0  0  0  0  0  0
    3.4780   69.7770   67.0360 C   0  0  0  0  0  0  0  0  0  0  0  0
    2.3210   68.8710   67.4470 C   0  0  0  0  0  0  0  0  0  0  0  0
    1.2940   68.7680   66.3210 C   0  0  1  0  0  0  0  0  0  0  0  0
    1.9440   68.1300   65.0820 C   0  0  0  0  0  0  0  0  0  0  0  0
    0.1340   68.0050   66.7770 N   0  0  0  0  0  0  0  0  0  0  0  0
   -1.1390   68.4010   66.4540 C   0  0  0  0  0  0  0  0  0  0  0  0
   -1.3640   69.4100   65.7920 O   0  0  0  0  0  0  0  0  0  0  0  0
   -2.1410   67.5620   66.9270 N   0  0  0  0  0  0  0  0  0  0  0  0
   -1.9910   66.7140   68.1020 C   0  0  0  0  0  0  0  0  0  0  0  0
   -3.5080   67.9260   66.5920 C   0  0  0  0  0  0  0  0  0  0  0  0
    6.7830   70.0300   67.1820 C   0  0  0  0  0  0  0  0  0  0  0  0
    5.9520   70.7150   66.2540 O   0  0  0  0  0  0  0  0  0  0  0  0
    6.8157   70.0759   63.7479 H   0  0  0  0  0  0  0  0  0  0  0  0
    5.5101   68.7037   62.1308 H   0  0  0  0  0  0  0  0  0  0  0  0
    3.2698   67.8266   62.7569 H   0  0  0  0  0  0  0  0  0  0  0  0
    4.2808   69.6748   67.7810 H   0  0  0  0  0  0  0  0  0  0  0  0
    3.0815   70.8018   66.9845 H   0  0  0  0  0  0  0  0  0  0  0  0
    2.7104   67.8676   67.6743 H   0  0  0  0  0  0  0  0  0  0  0  0
    1.8328   69.2992   68.3348 H   0  0  0  0  0  0  0  0  0  0  0  0
    0.9459   69.7728   66.0397 H   0  0  0  0  0  0  0  0  0  0  0  0
    2.0590   67.0518   65.2671 H   0  0  0  0  0  0  0  0  0  0  0  0
    1.2835   68.3427   64.2285 H   0  0  0  0  0  0  0  0  0  0  0  0
    0.2740   67.1593   67.3481 H   0  0  0  0  0  0  0  0  0  0  0  0
   -2.0989   67.3243   69.0108 H   0  0  0  0  0  0  0  0  0  0  0  0
   -2.7648   65.9323   68.0912 H   0  0  0  0  0  0  0  0  0  0  0  0
   -0.9960   66.2452   68.0912 H   0  0  0  0  0  0  0  0  0  0  0  0
   -4.0837   68.0793   67.5167 H   0  0  0  0  0  0  0  0  0  0  0  0
   -3.5062   68.8550   66.0029 H   0  0  0  0  0  0  0  0  0  0  0  0
   -3.9684   67.1192   66.0029 H   0  0  0  0  0  0  0  0  0  0  0  0
    6.4749   70.2839   68.2070 H   0  0  0  0  0  0  0  0  0  0  0  0
    6.6873   68.9450   67.0285 H   0  0  0  0  0  0  0  0  0  0  0  0
    7.8298   70.3311   67.0285 H   0  0  0  0  0  0  0  0  0  0  0  0
  2  1  2  0
  3  2  1  0
  4  3  2  0
  5  4  1  0
  6  5  2  0
  6  1  1  0
  7  6  1  0
  8  7  1  0
  9  8  1  0
 10  9  1  0
 10  5  1  0
 11  9  1  0
 12 11  1  0
 13 12  2  0
 14 12  1  0
 15 14  1  0
 16 14  1  0
 18  1  1  0
 18 17  1  0
  2 19  1  0
  3 20  1  0
  4 21  1  0
  7 22  1  0
  7 23  1  0
  8 24  1  0
  8 25  1  0
  9 26  1  6
 10 27  1  0
 10 28  1  0
 11 29  1  0
 15 30  1  0
 15 31  1  0
 15 32  1  0
 16 33  1  0
 16 34  1  0
 16 35  1  0
 17 36  1  0
 17 37  1  0
 17 38  1  0
M  END
>  <score>  (4) 
-7.64

$$$$
=
     RDKit          3D

 38 39  0  0  0  0  0  0  0  0999 V2000
   -1.3820   67.7140   66.6440 C   0  0  0  0  0  0  0  0  0  0  0  0
   -1.9140   66.9470   67.6840 C   0  0  0  0  0  0  0  0  0  0  0  0
   -1.1270   66.6070   68.7840 C   0  0  0  0  0  0  0  0  0  0  0  0
    0.1950   67.0360   68.8550 C   0  0  0  0  0  0  0  0  0  0  0  0
    0.7480   67.8130   67.8270 C   0  0  0  0  0  0  0  0  0  0  0  0
   -0.0370   68.1360   66.7010 C   0  0  0  0  0  0  0  0  0  0  0  0
    0.5300   68.9900   65.5880 C   0  0  0  0  0  0  0  0  0  0  0  0
    2.0550   69.0480   65.5750 C   0  0  0  0  0  0  0  0  0  0  0  0
    2.5920   69.3580   66.9710 C   0  0  1  0  0  0  0  0  0  0  0  0
    2.1940   68.2350   67.9420 C   0  0  0  0  0  0  0  0  0  0  0  0
    4.0410   69.5380   66.9150 N   0  0  0  0  0  0  0  0  0  0  0  0
    4.6960   70.2710   67.8720 C   0  0  0  0  0  0  0  0  0  0  0  0
    4.1030   70.8200   68.7970 O   0  0  0  0  0  0  0  0  0  0  0  0
    6.0750   70.3290   67.7110 N   0  0  0  0  0  0  0  0  0  0  0  0
    6.7400   70.1780   66.4240 C   0  0  0  0  0  0  0  0  0  0  0  0
    6.8180   71.0760   68.7120 C   0  0  0  0  0  0  0  0  0  0  0  0
   -3.3120   68.7890   65.7360 C   0  0  0  0  0  0  0  0  0  0  0  0
   -2.0830   68.1050   65.5310 O   0  0  0  0  0  0  0  0  0  0  0  0
   -2.9598   66.6094   67.6347 H   0  0  0  0  0  0  0  0  0  0  0  0
   -1.5517   65.9990   69.5964 H   0  0  0  0  0  0  0  0  0  0  0  0
    0.8111   66.7634   69.7245 H   0  0  0  0  0  0  0  0  0  0  0  0
    0.1900   68.5778   64.6265 H   0  0  0  0  0  0  0  0  0  0  0  0
    0.1708   70.0161   65.7555 H   0  0  0  0  0  0  0  0  0  0  0  0
    2.4511   68.0772   65.2424 H   0  0  0  0  0  0  0  0  0  0  0  0
    2.3742   69.8445   64.8868 H   0  0  0  0  0  0  0  0  0  0  0  0
    2.1512   70.2952   67.3416 H   0  0  0  0  0  0  0  0  0  0  0  0
    2.8280   67.3595   67.7381 H   0  0  0  0  0  0  0  0  0  0  0  0
    2.3329   68.6278   68.9600 H   0  0  0  0  0  0  0  0  0  0  0  0
    4.5774   69.1092   66.1474 H   0  0  0  0  0  0  0  0  0  0  0  0
    7.8011   69.9371   66.5856 H   0  0  0  0  0  0  0  0  0  0  0  0
    6.2617   69.3656   65.8572 H   0  0  0  0  0  0  0  0  0  0  0  0
    6.6595   71.1173   65.8572 H   0  0  0  0  0  0  0  0  0  0  0  0
    6.5017   70.7580   69.7164 H   0  0  0  0  0  0  0  0  0  0  0  0
    7.8941   70.8843   68.5886 H   0  0  0  0  0  0  0  0  0  0  0  0
    6.6205   72.1511   68.5886 H   0  0  0  0  0  0  0  0  0  0  0  0
   -3.4983   68.8927   66.8151 H   0  0  0  0  0  0  0  0  0  0  0  0
   -3.2576   69.7866   65.2758 H   0  0  0  0  0  0  0  0  0  0  0  0
   -4.1312   68.2170   65.2758 H   0  0  0  0  0  0  0  0  0  0  0  0
  2  1  2  0
  3  2  1  0
  4  3  2  0
  5  4  1  0
  6  5  2  0
  6  1  1  0
  7  6  1  0
  8  7  1  0
  9  8  1  0
 10  9  1  0
 10  5  1  0
 11  9  1  0
 12 11  1  0
 13 12  2  0
 14 12  1  0
 15 14  1  0
 16 14  1  0
 18  1  1  0
 18 17  1  0
  2 19  1  0
  3 20  1  0
  4 21  1  0
  7 22  1  0
  7 23  1  0
  8 24  1  0
  8 25  1  0
  9 26  1  1
 10 27  1  0
 10 28  1  0
 11 29  1  0
 15 30  1  0
 15 31  1  0
 15 32  1  0
 16 33  1  0
 16 34  1  0
 16 35  1  0
 17 36  1  0
 17 37  1  0
 17 38  1  0
M  END
>  <score>  (5) 
-7.159

$$$$
=
     RDKit          3D

 38 39  0  0  0  0  0  0  0  0999 V2000
    0.9900   68.5380   64.9460 C   0  0  0  0  0  0  0  0  0  0  0  0
   -0.3120   68.2640   65.3730 C   0  0  0  0  0  0  0  0  0  0  0  0
   -0.6620   68.4190   66.7150 C   0  0  0  0  0  0  0  0  0  0  0  0
    0.2840   68.8550   67.6370 C   0  0  0  0  0  0  0  0  0  0  0  0
    1.5940   69.1430   67.2310 C   0  0  0  0  0  0  0  0  0  0  0  0
    1.9590   68.9620   65.8800 C   0  0  0  0  0  0  0  0  0  0  0  0
    3.3610   69.2860   65.4130 C   0  0  0  0  0  0  0  0  0  0  0  0
    4.3850   69.3520   66.5430 C   0  0  0  0  0  0  0  0  0  0  0  0
    3.8650   70.2180   67.6880 C   0  0  1  0  0  0  0  0  0  0  0  0
    2.5890   69.5920   68.2750 C   0  0  0  0  0  0  0  0  0  0  0  0
    4.9060   70.3760   68.7010 N   0  0  0  0  0  0  0  0  0  0  0  0
    6.1140   70.9430   68.3840 C   0  0  0  0  0  0  0  0  0  0  0  0
    6.3840   71.3220   67.2480 O   0  0  0  0  0  0  0  0  0  0  0  0
    6.9950   71.0590   69.4530 N   0  0  0  0  0  0  0  0  0  0  0  0
    6.9580   70.1900   70.6220 C   0  0  0  0  0  0  0  0  0  0  0  0
    8.2820   71.6750   69.1750 C   0  0  0  0  0  0  0  0  0  0  0  0
    0.4750   68.6750   62.6190 C   0  0  0  0  0  0  0  0  0  0  0  0
    1.4210   68.4250   63.6490 O   0  0  0  0  0  0  0  0  0  0  0  0
   -1.0654   67.9242   64.6471 H   0  0  0  0  0  0  0  0  0  0  0  0
   -1.6876   68.1960   67.0443 H   0  0  0  0  0  0  0  0  0  0  0  0
    0.0015   68.9747   68.6933 H   0  0  0  0  0  0  0  0  0  0  0  0
    3.6783   68.5090   64.7019 H   0  0  0  0  0  0  0  0  0  0  0  0
    3.3239   70.2852   64.9545 H   0  0  0  0  0  0  0  0  0  0  0  0
    4.5772   68.3355   66.9168 H   0  0  0  0  0  0  0  0  0  0  0  0
    5.3136   69.7962   66.1552 H   0  0  0  0  0  0  0  0  0  0  0  0
    3.6070   71.2191   67.3122 H   0  0  0  0  0  0  0  0  0  0  0  0
    2.8771   68.7182   68.8779 H   0  0  0  0  0  0  0  0  0  0  0  0
    2.0955   70.3722   68.8732 H   0  0  0  0  0  0  0  0  0  0  0  0
    4.7306   70.0578   69.6648 H   0  0  0  0  0  0  0  0  0  0  0  0
    6.9841   70.8026   71.5352 H   0  0  0  0  0  0  0  0  0  0  0  0
    6.0337   69.5939   70.6066 H   0  0  0  0  0  0  0  0  0  0  0  0
    7.8283   69.5175   70.6066 H   0  0  0  0  0  0  0  0  0  0  0  0
    8.7855   71.9160   70.1228 H   0  0  0  0  0  0  0  0  0  0  0  0
    8.9049   70.9774   68.5959 H   0  0  0  0  0  0  0  0  0  0  0  0
    8.1294   72.5977   68.5959 H   0  0  0  0  0  0  0  0  0  0  0  0
   -0.4961   68.9316   63.0675 H   0  0  0  0  0  0  0  0  0  0  0  0
    0.8238   69.5118   61.9960 H   0  0  0  0  0  0  0  0  0  0  0  0
    0.3648   67.7751   61.9960 H   0  0  0  0  0  0  0  0  0  0  0  0
  2  1  2  0
  3  2  1  0
  4  3  2  0
  5  4  1  0
  6  5  2  0
  6  1  1  0
  7  6  1  0
  8  7  1  0
  9  8  1  0
 10  9  1  0
 10  5  1  0
 11  9  1  0
 12 11  1  0
 13 12  2  0
 14 12  1  0
 15 14  1  0
 16 14  1  0
 18  1  1  0
 18 17  1  0
  2 19  1  0
  3 20  1  0
  4 21  1  0
  7 22  1  0
  7 23  1  0
  8 24  1  0
  8 25  1  0
  9 26  1  6
 10 27  1  0
 10 28  1  0
 11 29  1  0
 15 30  1  0
 15 31  1  0
 15 32  1  0
 16 33  1  0
 16 34  1  0
 16 35  1  0
 17 36  1  0
 17 37  1  0
 17 38  1  0
M  END
>  <score>  (6) 
-6.905

$$$$
=
     RDKit          3D

 38 39  0  0  0  0  0  0  0  0999 V2000
    2.2860   62.3720   70.7460 C   0  0  0  0  0  0  0  0  0  0  0  0
    3.0860   62.5760   69.6190 C   0  0  0  0  0  0  0  0  0  0  0  0
    3.8760   61.5420   69.1170 C   0  0  0  0  0  0  0  0  0  0  0  0
    3.8680   60.2950   69.7340 C   0  0  0  0  0  0  0  0  0  0  0  0
    3.0680   60.0640   70.8620 C   0  0  0  0  0  0  0  0  0  0  0  0
    2.2880   61.1150   71.3880 C   0  0  0  0  0  0  0  0  0  0  0  0
    1.4010   60.8860   72.5930 C   0  0  0  0  0  0  0  0  0  0  0  0
    1.7770   59.6500   73.4050 C   0  0  0  0  0  0  0  0  0  0  0  0
    1.9570   58.4410   72.4900 C   0  0  1  0  0  0  0  0  0  0  0  0
    3.1110   58.6990   71.5080 C   0  0  0  0  0  0  0  0  0  0  0  0
    2.1890   57.2420   73.2940 N   0  0  0  0  0  0  0  0  0  0  0  0
    1.1670   56.3650   73.5580 C   0  0  0  0  0  0  0  0  0  0  0  0
    0.0220   56.5510   73.1550 O   0  0  0  0  0  0  0  0  0  0  0  0
    1.5400   55.2540   74.3050 N   0  0  0  0  0  0  0  0  0  0  0  0
    2.6730   55.2460   75.2220 C   0  0  0  0  0  0  0  0  0  0  0  0
    0.4980   54.2820   74.5940 C   0  0  0  0  0  0  0  0  0  0  0  0
    1.3710   64.5750   70.6350 C   0  0  0  0  0  0  0  0  0  0  0  0
    1.4700   63.3240   71.3030 O   0  0  0  0  0  0  0  0  0  0  0  0
    3.0929   63.5585   69.1243 H   0  0  0  0  0  0  0  0  0  0  0  0
    4.5064   61.7127   68.2319 H   0  0  0  0  0  0  0  0  0  0  0  0
    4.4942   59.4840   69.3337 H   0  0  0  0  0  0  0  0  0  0  0  0
    1.4712   61.7667   73.2483 H   0  0  0  0  0  0  0  0  0  0  0  0
    0.3806   60.7244   72.2152 H   0  0  0  0  0  0  0  0  0  0  0  0
    2.7186   59.8417   73.9404 H   0  0  0  0  0  0  0  0  0  0  0  0
    0.9694   59.4363   74.1207 H   0  0  0  0  0  0  0  0  0  0  0  0
    1.0425   58.2797   71.9004 H   0  0  0  0  0  0  0  0  0  0  0  0
    4.0602   58.6042   72.0557 H   0  0  0  0  0  0  0  0  0  0  0  0
    3.0156   57.9589   70.6999 H   0  0  0  0  0  0  0  0  0  0  0  0
    3.1305   57.0534   73.6666 H   0  0  0  0  0  0  0  0  0  0  0  0
    2.3056   55.2486   76.2588 H   0  0  0  0  0  0  0  0  0  0  0  0
    3.2779   54.3436   75.0496 H   0  0  0  0  0  0  0  0  0  0  0  0
    3.2906   56.1398   75.0496 H   0  0  0  0  0  0  0  0  0  0  0  0
    0.3860   54.1775   75.6833 H   0  0  0  0  0  0  0  0  0  0  0  0
   -0.4528   54.6233   74.1587 H   0  0  0  0  0  0  0  0  0  0  0  0
    0.7725   53.3098   74.1587 H   0  0  0  0  0  0  0  0  0  0  0  0
    1.3070   65.3834   71.3782 H   0  0  0  0  0  0  0  0  0  0  0  0
    2.2600   64.7256   70.0050 H   0  0  0  0  0  0  0  0  0  0  0  0
    0.4693   64.5839   70.0050 H   0  0  0  0  0  0  0  0  0  0  0  0
  2  1  2  0
  3  2  1  0
  4  3  2  0
  5  4  1  0
  6  5  2  0
  6  1  1  0
  7  6  1  0
  8  7  1  0
  9  8  1  0
 10  9  1  0
 10  5  1  0
 11  9  1  0
 12 11  1  0
 13 12  2  0
 14 12  1  0
 15 14  1  0
 16 14  1  0
 18  1  1  0
 18 17  1  0
  2 19  1  0
  3 20  1  0
  4 21  1  0
  7 22  1  0
  7 23  1  0
  8 24  1  0
  8 25  1  0
  9 26  1  6
 10 27  1  0
 10 28  1  0
 11 29  1  0
 15 30  1  0
 15 31  1  0
 15 32  1  0
 16 33  1  0
 16 34  1  0
 16 35  1  0
 17 36  1  0
 17 37  1  0
 17 38  1  0
M  END
>  <score>  (7) 
-6.818

$$$$
=
     RDKit          3D

 38 39  0  0  0  0  0  0  0  0999 V2000
    0.7040   68.4740   64.7980 C   0  0  0  0  0  0  0  0  0  0  0  0
    1.9110   69.0260   64.3630 C   0  0  0  0  0  0  0  0  0  0  0  0
    3.0040   69.1020   65.2260 C   0  0  0  0  0  0  0  0  0  0  0  0
    2.9010   68.6220   66.5280 C   0  0  0  0  0  0  0  0  0  0  0  0
    1.7010   68.0570   66.9850 C   0  0  0  0  0  0  0  0  0  0  0  0
    0.5860   68.0020   66.1230 C   0  0  0  0  0  0  0  0  0  0  0  0
   -0.7130   67.3790   66.5860 C   0  0  0  0  0  0  0  0  0  0  0  0
   -0.8360   67.2720   68.1030 C   0  0  0  0  0  0  0  0  0  0  0  0
    0.4290   66.6600   68.7020 C   0  0  1  0  0  0  0  0  0  0  0  0
    1.6340   67.5700   68.4140 C   0  0  0  0  0  0  0  0  0  0  0  0
    0.2440   66.4460   70.1360 N   0  0  0  0  0  0  0  0  0  0  0  0
    0.3730   65.1940   70.6820 C   0  0  0  0  0  0  0  0  0  0  0  0
    0.6280   64.2040   70.0010 O   0  0  0  0  0  0  0  0  0  0  0  0
    0.2030   65.1450   72.0600 N   0  0  0  0  0  0  0  0  0  0  0  0
   -0.5900   66.1130   72.8060 C   0  0  0  0  0  0  0  0  0  0  0  0
    0.3530   63.8450   72.6910 C   0  0  0  0  0  0  0  0  0  0  0  0
   -0.4500   69.0660   62.7930 C   0  0  0  0  0  0  0  0  0  0  0  0
   -0.4180   68.3470   64.0190 O   0  0  0  0  0  0  0  0  0  0  0  0
    2.0001   69.4031   63.3335 H   0  0  0  0  0  0  0  0  0  0  0  0
    3.9495   69.5424   64.8766 H   0  0  0  0  0  0  0  0  0  0  0  0
    3.7666   68.6860   67.2037 H   0  0  0  0  0  0  0  0  0  0  0  0
   -1.5453   67.9937   66.2127 H   0  0  0  0  0  0  0  0  0  0  0  0
   -0.7371   66.3536   66.1886 H   0  0  0  0  0  0  0  0  0  0  0  0
   -0.9869   68.2764   68.5254 H   0  0  0  0  0  0  0  0  0  0  0  0
   -1.6923   66.6254   68.3451 H   0  0  0  0  0  0  0  0  0  0  0  0
    0.6263   65.6824   68.2380 H   0  0  0  0  0  0  0  0  0  0  0  0
    1.5737   68.4459   69.0767 H   0  0  0  0  0  0  0  0  0  0  0  0
    2.5389   66.9702   68.5915 H   0  0  0  0  0  0  0  0  0  0  0  0
    0.0140   67.2449   70.7441 H   0  0  0  0  0  0  0  0  0  0  0  0
   -0.4530   65.9458   73.8846 H   0  0  0  0  0  0  0  0  0  0  0  0
   -0.2631   67.1312   72.5484 H   0  0  0  0  0  0  0  0  0  0  0  0
   -1.6526   65.9929   72.5484 H   0  0  0  0  0  0  0  0  0  0  0  0
    0.3392   63.9644   73.7844 H   0  0  0  0  0  0  0  0  0  0  0  0
   -0.4756   63.1902   72.3832 H   0  0  0  0  0  0  0  0  0  0  0  0
    1.3089   63.3961   72.3832 H   0  0  0  0  0  0  0  0  0  0  0  0
   -0.4980   70.1449   63.0018 H   0  0  0  0  0  0  0  0  0  0  0  0
    0.4589   68.8446   62.2143 H   0  0  0  0  0  0  0  0  0  0  0  0
   -1.3356   68.7648   62.2143 H   0  0  0  0  0  0  0  0  0  0  0  0
  2  1  2  0
  3  2  1  0
  4  3  2  0
  5  4  1  0
  6  5  2  0
  6  1  1  0
  7  6  1  0
  8  7  1  0
  9  8  1  0
 10  9  1  0
 10  5  1  0
 11  9  1  0
 12 11  1  0
 13 12  2  0
 14 12  1  0
 15 14  1  0
 16 14  1  0
 18  1  1  0
 18 17  1  0
  2 19  1  0
  3 20  1  0
  4 21  1  0
  7 22  1  0
  7 23  1  0
  8 24  1  0
  8 25  1  0
  9 26  1  6
 10 27  1  0
 10 28  1  0
 11 29  1  0
 15 30  1  0
 15 31  1  0
 15 32  1  0
 16 33  1  0
 16 34  1  0
 16 35  1  0
 17 36  1  0
 17 37  1  0
 17 38  1  0
M  END
>  <score>  (8) 
-6.754

$$$$
=
     RDKit          3D

 38 39  0  0  0  0  0  0  0  0999 V2000
    0.3600   68.6620   67.3280 C   0  0  0  0  0  0  0  0  0  0  0  0
   -0.7720   68.8150   66.5230 C   0  0  0  0  0  0  0  0  0  0  0  0
   -1.8690   67.9680   66.6810 C   0  0  0  0  0  0  0  0  0  0  0  0
   -1.8460   66.9670   67.6480 C   0  0  0  0  0  0  0  0  0  0  0  0
   -0.7230   66.8000   68.4710 C   0  0  0  0  0  0  0  0  0  0  0  0
    0.3980   67.6370   68.2970 C   0  0  0  0  0  0  0  0  0  0  0  0
    1.6130   67.4890   69.1870 C   0  0  0  0  0  0  0  0  0  0  0  0
    1.6910   66.1430   69.9010 C   0  0  0  0  0  0  0  0  0  0  0  0
    0.3550   65.8090   70.5630 C   0  0  1  0  0  0  0  0  0  0  0  0
   -0.7390   65.6850   69.4910 C   0  0  0  0  0  0  0  0  0  0  0  0
    0.4850   64.5840   71.3480 N   0  0  0  0  0  0  0  0  0  0  0  0
    0.0910   64.5460   72.6620 C   0  0  0  0  0  0  0  0  0  0  0  0
   -0.3650   65.5290   73.2390 O   0  0  0  0  0  0  0  0  0  0  0  0
    0.2410   63.3070   73.2740 N   0  0  0  0  0  0  0  0  0  0  0  0
    1.2200   62.3150   72.8480 C   0  0  0  0  0  0  0  0  0  0  0  0
   -0.1830   63.2080   74.6600 C   0  0  0  0  0  0  0  0  0  0  0  0
    2.4720   69.0950   66.3000 C   0  0  0  0  0  0  0  0  0  0  0  0
    1.4790   69.4530   67.2530 O   0  0  0  0  0  0  0  0  0  0  0  0
   -0.7981   69.6076   65.7607 H   0  0  0  0  0  0  0  0  0  0  0  0
   -2.7543   68.0914   66.0399 H   0  0  0  0  0  0  0  0  0  0  0  0
   -2.7145   66.3026   67.7674 H   0  0  0  0  0  0  0  0  0  0  0  0
    2.5139   67.6056   68.5667 H   0  0  0  0  0  0  0  0  0  0  0  0
    1.5364   68.2618   69.9661 H   0  0  0  0  0  0  0  0  0  0  0  0
    1.9384   65.3594   69.1698 H   0  0  0  0  0  0  0  0  0  0  0  0
    2.4685   66.1971   70.6773 H   0  0  0  0  0  0  0  0  0  0  0  0
    0.0645   66.6186   71.2487 H   0  0  0  0  0  0  0  0  0  0  0  0
   -0.6004   64.7300   68.9630 H   0  0  0  0  0  0  0  0  0  0  0  0
   -1.7060   65.7416   70.0122 H   0  0  0  0  0  0  0  0  0  0  0  0
    0.8772   63.7383   70.9099 H   0  0  0  0  0  0  0  0  0  0  0  0
    1.6792   61.8497   73.7326 H   0  0  0  0  0  0  0  0  0  0  0  0
    0.7206   61.5424   72.2449 H   0  0  0  0  0  0  0  0  0  0  0  0
    1.9991   62.8042   72.2449 H   0  0  0  0  0  0  0  0  0  0  0  0
    0.6735   63.4080   75.3206 H   0  0  0  0  0  0  0  0  0  0  0  0
   -0.9760   63.9451   74.8544 H   0  0  0  0  0  0  0  0  0  0  0  0
   -0.5675   62.1959   74.8544 H   0  0  0  0  0  0  0  0  0  0  0  0
    3.3818   68.7670   66.8241 H   0  0  0  0  0  0  0  0  0  0  0  0
    2.0965   68.2756   65.6694 H   0  0  0  0  0  0  0  0  0  0  0  0
    2.7057   69.9655   65.6694 H   0  0  0  0  0  0  0  0  0  0  0  0
  2  1  2  0
  3  2  1  0
  4  3  2  0
  5  4  1  0
  6  5  2  0
  6  1  1  0
  7  6  1  0
  8  7  1  0
  9  8  1  0
 10  9  1  0
 10  5  1  0
 11  9  1  0
 12 11  1  0
 13 12  2  0
 14 12  1  0
 15 14  1  0
 16 14  1  0
 18  1  1  0
 18 17  1  0
  2 19  1  0
  3 20  1  0
  4 21  1  0
  7 22  1  0
  7 23  1  0
  8 24  1  0
  8 25  1  0
  9 26  1  1
 10 27  1  0
 10 28  1  0
 11 29  1  0
 15 30  1  0
 15 31  1  0
 15 32  1  0
 16 33  1  0
 16 34  1  0
 16 35  1  0
 17 36  1  0
 17 37  1  0
 17 38  1  0
M  END
>  <score>  (9) 
-6.535

$$$$
