=
     RDKit          3D

 44 46  0  0  0  0  0  0  0  0999 V2000
    3.9030   67.5320   63.1200 C   0  0  0  0  0  0  0  0  0  0  0  0
    4.6330   66.3400   63.1390 C   0  0  0  0  0  0  0  0  0  0  0  0
    4.1940   65.2570   63.9000 C   0  0  0  0  0  0  0  0  0  0  0  0
    3.0280   65.3590   64.6520 C   0  0  0  0  0  0  0  0  0  0  0  0
    2.2860   66.5480   64.6580 C   0  0  0  0  0  0  0  0  0  0  0  0
    2.7120   67.6380   63.8700 C   0  0  0  0  0  0  0  0  0  0  0  0
    1.9400   68.9410   63.8630 C   0  0  0  0  0  0  0  0  0  0  0  0
    0.5460   68.8560   64.4830 C   0  0  0  0  0  0  0  0  0  0  0  0
    0.5320   68.0290   65.7670 C   0  0  1  0  0  0  0  0  0  0  0  0
    1.0110   66.6010   65.4700 C   0  0  0  0  0  0  0  0  0  0  0  0
    1.3160   68.6600   66.8190 N   0  0  0  0  0  0  0  0  0  0  0  0
    1.2500   68.2580   68.1190 C   0  0  0  0  0  0  0  0  0  0  0  0
    0.4350   67.4640   68.5690 O   0  0  0  0  0  0  0  0  0  0  0  0
    2.2410   68.8580   68.8140 O   0  0  0  0  0  0  0  0  0  0  0  0
    2.5920   70.1770   68.3800 C   0  0  0  0  0  0  0  0  0  0  0  0
    4.0500   70.2140   68.0030 C   0  0  0  0  0  0  0  0  0  0  0  0
    5.0020   70.7130   68.9030 C   0  0  0  0  0  0  0  0  0  0  0  0
    6.3510   70.7640   68.5490 C   0  0  0  0  0  0  0  0  0  0  0  0
    6.7600   70.3250   67.2910 C   0  0  0  0  0  0  0  0  0  0  0  0
    5.8190   69.8410   66.3830 C   0  0  0  0  0  0  0  0  0  0  0  0
    4.4700   69.7890   66.7350 C   0  0  0  0  0  0  0  0  0  0  0  0
    5.6080   69.0950   62.5270 C   0  0  0  0  0  0  0  0  0  0  0  0
    4.2620   68.6530   62.4140 O   0  0  0  0  0  0  0  0  0  0  0  0
    5.5586   66.2558   62.5506 H   0  0  0  0  0  0  0  0  0  0  0  0
    4.7707   64.3203   63.9057 H   0  0  0  0  0  0  0  0  0  0  0  0
    2.6856   64.4994   65.2468 H   0  0  0  0  0  0  0  0  0  0  0  0
    2.5208   69.6873   64.4249 H   0  0  0  0  0  0  0  0  0  0  0  0
    1.7962   69.2133   62.8070 H   0  0  0  0  0  0  0  0  0  0  0  0
    0.1990   69.8739   64.7141 H   0  0  0  0  0  0  0  0  0  0  0  0
   -0.1156   68.3611   63.7568 H   0  0  0  0  0  0  0  0  0  0  0  0
   -0.5010   67.9753   66.1413 H   0  0  0  0  0  0  0  0  0  0  0  0
    0.2207   66.0779   64.9115 H   0  0  0  0  0  0  0  0  0  0  0  0
    1.2242   66.1238   66.4379 H   0  0  0  0  0  0  0  0  0  0  0  0
    1.9433   69.4385   66.5714 H   0  0  0  0  0  0  0  0  0  0  0  0
    1.9811   70.4497   67.5068 H   0  0  0  0  0  0  0  0  0  0  0  0
    2.4076   70.8911   69.1961 H   0  0  0  0  0  0  0  0  0  0  0  0
    4.6836   71.0667   69.8947 H   0  0  0  0  0  0  0  0  0  0  0  0
    7.0923   71.1511   69.2636 H   0  0  0  0  0  0  0  0  0  0  0  0
    7.8242   70.3603   67.0147 H   0  0  0  0  0  0  0  0  0  0  0  0
    6.1406   69.4998   65.3880 H   0  0  0  0  0  0  0  0  0  0  0  0
    3.7310   69.4120   66.0127 H   0  0  0  0  0  0  0  0  0  0  0  0
    5.8769   69.1833   63.5900 H   0  0  0  0  0  0  0  0  0  0  0  0
    6.2746   68.3686   62.0392 H   0  0  0  0  0  0  0  0  0  0  0  0
    5.7142   70.0752   62.0392 H   0  0  0  0  0  0  0  0  0  0  0  0
  2  1  2  0
  3  2  1  0
  4  3  2  0
  5  4  1  0
  6  5  2  0
  6  1  1  0
  7  6  1  0
  8  7  1  0
  9  8  1  0
 10  5  1  0
 10  9  1  0
 11  9  1  0
 12 11  1  0
 13 12  2  0
 14 12  1  0
 15 14  1  0
 16 15  1  0
 17 16  2  0
 18 17  1  0
 19 18  2  0
 20 19  1  0
 21 16  1  0
 21 20  2  0
 23  1  1  0
 23 22  1  0
  2 24  1  0
  3 25  1  0
  4 26  1  0
  7 27  1  0
  7 28  1  0
  8 29  1  0
  8 30  1  0
  9 31  1  1
 10 32  1  0
 10 33  1  0
 11 34  1  0
 15 35  1  0
 15 36  1  0
 17 37  1  0
 18 38  1  0
 19 39  1  0
 20 40  1  0
 21 41  1  0
 22 42  1  0
 22 43  1  0
 22 44  1  0
M  END
>  <score>  (1) 
-9.921

$$$$
=
     RDKit          3D

 44 46  0  0  0  0  0  0  0  0999 V2000
    5.3630   70.4690   67.6660 C   0  0  0  0  0  0  0  0  0  0  0  0
    6.1780   70.0410   66.6140 C   0  0  0  0  0  0  0  0  0  0  0  0
    5.6390   69.3050   65.5600 C   0  0  0  0  0  0  0  0  0  0  0  0
    4.2850   68.9850   65.5510 C   0  0  0  0  0  0  0  0  0  0  0  0
    3.4500   69.3940   66.6010 C   0  0  0  0  0  0  0  0  0  0  0  0
    3.9850   70.1600   67.6570 C   0  0  0  0  0  0  0  0  0  0  0  0
    3.1140   70.6070   68.8130 C   0  0  0  0  0  0  0  0  0  0  0  0
    1.6130   70.4560   68.5710 C   0  0  0  0  0  0  0  0  0  0  0  0
    1.2660   69.1340   67.8900 C   0  0  1  0  0  0  0  0  0  0  0  0
    1.9800   69.0460   66.5330 C   0  0  0  0  0  0  0  0  0  0  0  0
    1.5730   67.9950   68.7430 N   0  0  0  0  0  0  0  0  0  0  0  0
    0.7700   66.8960   68.8090 C   0  0  0  0  0  0  0  0  0  0  0  0
   -0.3430   66.8070   68.3100 O   0  0  0  0  0  0  0  0  0  0  0  0
    1.4140   65.9240   69.4910 O   0  0  0  0  0  0  0  0  0  0  0  0
    0.6450   65.2610   70.5010 C   0  0  0  0  0  0  0  0  0  0  0  0
    1.3570   64.0060   70.9360 C   0  0  0  0  0  0  0  0  0  0  0  0
    2.7390   63.8730   70.7430 C   0  0  0  0  0  0  0  0  0  0  0  0
    3.3980   62.7040   71.1290 C   0  0  0  0  0  0  0  0  0  0  0  0
    2.6810   61.6560   71.7030 C   0  0  0  0  0  0  0  0  0  0  0  0
    1.3040   61.7720   71.8850 C   0  0  0  0  0  0  0  0  0  0  0  0
    0.6440   62.9400   71.5010 C   0  0  0  0  0  0  0  0  0  0  0  0
    7.1330   70.9470   69.1950 C   0  0  0  0  0  0  0  0  0  0  0  0
    5.8050   71.1850   68.7500 O   0  0  0  0  0  0  0  0  0  0  0  0
    7.2503   70.2863   66.6179 H   0  0  0  0  0  0  0  0  0  0  0  0
    6.2858   68.9763   64.7332 H   0  0  0  0  0  0  0  0  0  0  0  0
    3.8663   68.4069   64.7141 H   0  0  0  0  0  0  0  0  0  0  0  0
    3.3815   70.0083   69.6962 H   0  0  0  0  0  0  0  0  0  0  0  0
    3.3023   71.6822   68.9489 H   0  0  0  0  0  0  0  0  0  0  0  0
    1.0922   70.5028   69.5388 H   0  0  0  0  0  0  0  0  0  0  0  0
    1.2959   71.2714   67.9043 H   0  0  0  0  0  0  0  0  0  0  0  0
    0.1810   69.1027   67.7117 H   0  0  0  0  0  0  0  0  0  0  0  0
    1.4895   69.7412   65.8358 H   0  0  0  0  0  0  0  0  0  0  0  0
    1.9102   68.0006   66.1980 H   0  0  0  0  0  0  0  0  0  0  0  0
    2.4277   68.0207   69.3172 H   0  0  0  0  0  0  0  0  0  0  0  0
    0.5215   65.9301   71.3653 H   0  0  0  0  0  0  0  0  0  0  0  0
   -0.3428   64.9984   70.0945 H   0  0  0  0  0  0  0  0  0  0  0  0
    3.3082   64.6950   70.2844 H   0  0  0  0  0  0  0  0  0  0  0  0
    4.4838   62.6103   70.9799 H   0  0  0  0  0  0  0  0  0  0  0  0
    3.2015   60.7376   72.0123 H   0  0  0  0  0  0  0  0  0  0  0  0
    0.7370   60.9420   72.3318 H   0  0  0  0  0  0  0  0  0  0  0  0
   -0.4435   63.0246   71.6428 H   0  0  0  0  0  0  0  0  0  0  0  0
    7.1560   70.9429   70.2948 H   0  0  0  0  0  0  0  0  0  0  0  0
    7.4772   69.9729   68.8174 H   0  0  0  0  0  0  0  0  0  0  0  0
    7.7941   71.7410   68.8174 H   0  0  0  0  0  0  0  0  0  0  0  0
  2  1  2  0
  3  2  1  0
  4  3  2  0
  5  4  1  0
  6  5  2  0
  6  1  1  0
  7  6  1  0
  8  7  1  0
  9  8  1  0
 10  5  1  0
 10  9  1  0
 11  9  1  0
 12 11  1  0
 13 12  2  0
 14 12  1  0
 15 14  1  0
 16 15  1  0
 17 16  2  0
 18 17  1  0
 19 18  2  0
 20 19  1  0
 21 16  1  0
 21 20  2  0
 23  1  1  0
 23 22  1  0
  2 24  1  0
  3 25  1  0
  4 26  1  0
  7 27  1  0
  7 28  1  0
  8 29  1  0
  8 30  1  0
  9 31  1  6
 10 32  1  0
 10 33  1  0
 11 34  1  0
 15 35  1  0
 15 36  1  0
 17 37  1  0
 18 38  1  0
 19 39  1  0
 20 40  1  0
 21 41  1  0
 22 42  1  0
 22 43  1  0
 22 44  1  0
M  END
>  <score>  (2) 
-9.92

$$$$
=
     RDKit          3D

 44 46  0  0  0  0  0  0  0  0999 V2000
    4.7150   69.8440   66.4560 C   0  0  0  0  0  0  0  0  0  0  0  0
    5.2610   69.1860   65.3500 C   0  0  0  0  0  0  0  0  0  0  0  0
    4.5080   68.2450   64.6480 C   0  0  0  0  0  0  0  0  0  0  0  0
    3.2090   67.9490   65.0490 C   0  0  0  0  0  0  0  0  0  0  0  0
    2.6450   68.5890   66.1610 C   0  0  0  0  0  0  0  0  0  0  0  0
    3.3920   69.5590   66.8600 C   0  0  0  0  0  0  0  0  0  0  0  0
    2.8180   70.2590   68.0730 C   0  0  0  0  0  0  0  0  0  0  0  0
    1.3110   70.0790   68.2550 C   0  0  0  0  0  0  0  0  0  0  0  0
    0.8620   68.6460   67.9830 C   0  0  1  0  0  0  0  0  0  0  0  0
    1.2200   68.2540   66.5420 C   0  0  0  0  0  0  0  0  0  0  0  0
    1.4180   67.7160   68.9560 N   0  0  0  0  0  0  0  0  0  0  0  0
    0.7610   66.5880   69.3450 C   0  0  0  0  0  0  0  0  0  0  0  0
   -0.3980   66.3170   69.0640 O   0  0  0  0  0  0  0  0  0  0  0  0
    1.6040   65.8160   70.0650 O   0  0  0  0  0  0  0  0  0  0  0  0
    1.0340   64.6280   70.6240 C   0  0  0  0  0  0  0  0  0  0  0  0
    2.0930   63.5620   70.7330 C   0  0  0  0  0  0  0  0  0  0  0  0
    1.7520   62.2630   71.1330 C   0  0  0  0  0  0  0  0  0  0  0  0
    2.7350   61.2780   71.2520 C   0  0  0  0  0  0  0  0  0  0  0  0
    4.0670   61.5850   70.9790 C   0  0  0  0  0  0  0  0  0  0  0  0
    4.4180   62.8780   70.5940 C   0  0  0  0  0  0  0  0  0  0  0  0
    3.4380   63.8630   70.4750 C   0  0  0  0  0  0  0  0  0  0  0  0
    6.7560   70.5330   67.4850 C   0  0  0  0  0  0  0  0  0  0  0  0
    5.3810   70.7730   67.2150 O   0  0  0  0  0  0  0  0  0  0  0  0
    6.2895   69.4115   65.0318 H   0  0  0  0  0  0  0  0  0  0  0  0
    4.9422   67.7356   63.7751 H   0  0  0  0  0  0  0  0  0  0  0  0
    2.6204   67.2073   64.4892 H   0  0  0  0  0  0  0  0  0  0  0  0
    3.3216   69.8643   68.9677 H   0  0  0  0  0  0  0  0  0  0  0  0
    2.9885   71.3353   67.9228 H   0  0  0  0  0  0  0  0  0  0  0  0
    1.0456   70.3426   69.2895 H   0  0  0  0  0  0  0  0  0  0  0  0
    0.8039   70.7338   67.5310 H   0  0  0  0  0  0  0  0  0  0  0  0
   -0.2311   68.5918   68.0936 H   0  0  0  0  0  0  0  0  0  0  0  0
    0.5426   68.7863   65.8580 H   0  0  0  0  0  0  0  0  0  0  0  0
    1.1141   67.1616   66.4684 H   0  0  0  0  0  0  0  0  0  0  0  0
    2.3414   67.9185   69.3648 H   0  0  0  0  0  0  0  0  0  0  0  0
    0.6335   64.8498   71.6242 H   0  0  0  0  0  0  0  0  0  0  0  0
    0.2223   64.2712   69.9730 H   0  0  0  0  0  0  0  0  0  0  0  0
    0.7030   62.0174   71.3548 H   0  0  0  0  0  0  0  0  0  0  0  0
    2.4579   60.2594   71.5613 H   0  0  0  0  0  0  0  0  0  0  0  0
    4.8404   60.8078   71.0673 H   0  0  0  0  0  0  0  0  0  0  0  0
    5.4698   63.1218   70.3837 H   0  0  0  0  0  0  0  0  0  0  0  0
    3.7220   64.8830   70.1767 H   0  0  0  0  0  0  0  0  0  0  0  0
    6.9166   70.5050   68.5729 H   0  0  0  0  0  0  0  0  0  0  0  0
    7.0532   69.5694   67.0455 H   0  0  0  0  0  0  0  0  0  0  0  0
    7.3621   71.3389   67.0455 H   0  0  0  0  0  0  0  0  0  0  0  0
  2  1  2  0
  3  2  1  0
  4  3  2  0
  5  4  1  0
  6  5  2  0
  6  1  1  0
  7  6  1  0
  8  7  1  0
  9  8  1  0
 10  5  1  0
 10  9  1  0
 11  9  1  0
 12 11  1  0
 13 12  2  0
 14 12  1  0
 15 14  1  0
 16 15  1  0
 17 16  2  0
 18 17  1  0
 19 18  2  0
 20 19  1  0
 21 16  1  0
 21 20  2  0
 23  1  1  0
 23 22  1  0
  2 24  1  0
  3 25  1  0
  4 26  1  0
  7 27  1  0
  7 28  1  0
  8 29  1  0
  8 30  1  0
  9 31  1  6
 10 32  1  0
 10 33  1  0
 11 34  1  0
 15 35  1  0
 15 36  1  0
 17 37  1  0
 18 38  1  0
 19 39  1  0
 20 40  1  0
 21 41  1  0
 22 42  1  0
 22 43  1  0
 22 44  1  0
M  END
>  <score>  (3) 
-9.57

$$$$
=
     RDKit          3D

 44 46  0  0  0  0  0  0  0  0999 V2000
    1.0490   68.9350   62.8440 C   0  0  0  0  0  0  0  0  0  0  0  0
    2.2370   68.6760   62.1560 C   0  0  0  0  0  0  0  0  0  0  0  0
    3.2550   67.9390   62.7600 C   0  0  0  0  0  0  0  0  0  0  0  0
    3.0980   67.4630   64.0580 C   0  0  0  0  0  0  0  0  0  0  0  0
    1.9190   67.7200   64.7720 C   0  0  0  0  0  0  0  0  0  0  0  0
    0.8760   68.4430   64.1560 C   0  0  0  0  0  0  0  0  0  0  0  0
   -0.4050   68.7490   64.9040 C   0  0  0  0  0  0  0  0  0  0  0  0
   -0.5930   67.9510   66.1930 C   0  0  0  0  0  0  0  0  0  0  0  0
    0.6960   67.8490   67.0050 C   0  0  1  0  0  0  0  0  0  0  0  0
    1.7830   67.1580   66.1690 C   0  0  0  0  0  0  0  0  0  0  0  0
    1.1270   69.1520   67.4910 N   0  0  0  0  0  0  0  0  0  0  0  0
    1.8640   69.2990   68.6280 C   0  0  0  0  0  0  0  0  0  0  0  0
    2.1000   68.4100   69.4330 O   0  0  0  0  0  0  0  0  0  0  0  0
    2.3050   70.5740   68.7010 O   0  0  0  0  0  0  0  0  0  0  0  0
    3.5370   70.7650   69.4060 C   0  0  0  0  0  0  0  0  0  0  0  0
    4.6950   70.5500   68.4660 C   0  0  0  0  0  0  0  0  0  0  0  0
    4.4850   69.9840   67.2010 C   0  0  0  0  0  0  0  0  0  0  0  0
    5.5590   69.7680   66.3360 C   0  0  0  0  0  0  0  0  0  0  0  0
    6.8520   70.1070   66.7290 C   0  0  0  0  0  0  0  0  0  0  0  0
    7.0730   70.6560   67.9920 C   0  0  0  0  0  0  0  0  0  0  0  0
    6.0020   70.8730   68.8580 C   0  0  0  0  0  0  0  0  0  0  0  0
    0.0210   69.9610   60.9490 C   0  0  0  0  0  0  0  0  0  0  0  0
   -0.0010   69.6590   62.3380 O   0  0  0  0  0  0  0  0  0  0  0  0
    2.3700   69.0556   61.1322 H   0  0  0  0  0  0  0  0  0  0  0  0
    4.1845   67.7334   62.2089 H   0  0  0  0  0  0  0  0  0  0  0  0
    3.9047   66.8808   64.5274 H   0  0  0  0  0  0  0  0  0  0  0  0
   -0.4064   69.8190   65.1592 H   0  0  0  0  0  0  0  0  0  0  0  0
   -1.2320   68.4644   64.2369 H   0  0  0  0  0  0  0  0  0  0  0  0
   -1.3595   68.4464   66.8070 H   0  0  0  0  0  0  0  0  0  0  0  0
   -0.8975   66.9310   65.9158 H   0  0  0  0  0  0  0  0  0  0  0  0
    0.5042   67.2343   67.8968 H   0  0  0  0  0  0  0  0  0  0  0  0
    1.5355   66.0890   66.0915 H   0  0  0  0  0  0  0  0  0  0  0  0
    2.7416   67.3287   66.6808 H   0  0  0  0  0  0  0  0  0  0  0  0
    0.8656   69.9927   66.9565 H   0  0  0  0  0  0  0  0  0  0  0  0
    3.5752   71.7890   69.8059 H   0  0  0  0  0  0  0  0  0  0  0  0
    3.5998   70.0440   70.2344 H   0  0  0  0  0  0  0  0  0  0  0  0
    3.4672   69.7082   66.8879 H   0  0  0  0  0  0  0  0  0  0  0  0
    5.3843   69.3294   65.3425 H   0  0  0  0  0  0  0  0  0  0  0  0
    7.6970   69.9420   66.0444 H   0  0  0  0  0  0  0  0  0  0  0  0
    8.0942   70.9183   68.3055 H   0  0  0  0  0  0  0  0  0  0  0  0
    6.1835   71.3004   69.8552 H   0  0  0  0  0  0  0  0  0  0  0  0
    0.1003   71.0495   60.8116 H   0  0  0  0  0  0  0  0  0  0  0  0
    0.8856   69.4683   60.4803 H   0  0  0  0  0  0  0  0  0  0  0  0
   -0.9059   69.5988   60.4803 H   0  0  0  0  0  0  0  0  0  0  0  0
  2  1  2  0
  3  2  1  0
  4  3  2  0
  5  4  1  0
  6  5  2  0
  6  1  1  0
  7  6  1  0
  8  7  1  0
  9  8  1  0
 10  5  1  0
 10  9  1  0
 11  9  1  0
 12 11  1  0
 13 12  2  0
 14 12  1  0
 15 14  1  0
 16 15  1  0
 17 16  2  0
 18 17  1  0
 19 18  2  0
 20 19  1  0
 21 16  1  0
 21 20  2  0
 23  1  1  0
 23 22  1  0
  2 24  1  0
  3 25  1  0
  4 26  1  0
  7 27  1  0
  7 28  1  0
  8 29  1  0
  8 30  1  0
  9 31  1  1
 10 32  1  0
 10 33  1  0
 11 34  1  0
 15 35  1  0
 15 36  1  0
 17 37  1  0
 18 38  1  0
 19 39  1  0
 20 40  1  0
 21 41  1  0
 22 42  1  0
 22 43  1  0
 22 44  1  0
M  END
>  <score>  (4) 
-9.122

$$$$
=
     RDKit          3D

 44 46  0  0  0  0  0  0  0  0999 V2000
    3.5460   69.4460   66.7220 C   0  0  0  0  0  0  0  0  0  0  0  0
    4.8070   70.0390   66.6310 C   0  0  0  0  0  0  0  0  0  0  0  0
    5.7240   69.6020   65.6750 C   0  0  0  0  0  0  0  0  0  0  0  0
    5.3900   68.5660   64.8080 C   0  0  0  0  0  0  0  0  0  0  0  0
    4.1340   67.9490   64.8880 C   0  0  0  0  0  0  0  0  0  0  0  0
    3.1940   68.4030   65.8360 C   0  0  0  0  0  0  0  0  0  0  0  0
    1.8330   67.7510   65.9580 C   0  0  0  0  0  0  0  0  0  0  0  0
    1.4630   66.8340   64.7930 C   0  0  0  0  0  0  0  0  0  0  0  0
    2.6340   65.9590   64.3500 C   0  0  1  0  0  0  0  0  0  0  0  0
    3.8060   66.8460   63.9070 C   0  0  0  0  0  0  0  0  0  0  0  0
    3.0240   65.0180   65.3910 N   0  0  0  0  0  0  0  0  0  0  0  0
    3.7310   63.8850   65.1220 C   0  0  0  0  0  0  0  0  0  0  0  0
    3.9700   63.4540   64.0030 O   0  0  0  0  0  0  0  0  0  0  0  0
    4.1410   63.3390   66.2870 O   0  0  0  0  0  0  0  0  0  0  0  0
    3.4090   63.7380   67.4520 C   0  0  0  0  0  0  0  0  0  0  0  0
    3.7950   62.8640   68.6160 C   0  0  0  0  0  0  0  0  0  0  0  0
    3.3360   61.5420   68.6910 C   0  0  0  0  0  0  0  0  0  0  0  0
    3.6780   60.7350   69.7790 C   0  0  0  0  0  0  0  0  0  0  0  0
    4.4740   61.2450   70.8030 C   0  0  0  0  0  0  0  0  0  0  0  0
    4.9240   62.5630   70.7440 C   0  0  0  0  0  0  0  0  0  0  0  0
    4.5830   63.3710   69.6590 C   0  0  0  0  0  0  0  0  0  0  0  0
    3.0230   70.3980   68.8480 C   0  0  0  0  0  0  0  0  0  0  0  0
    2.5850   69.7980   67.6360 O   0  0  0  0  0  0  0  0  0  0  0  0
    5.0786   70.8550   67.3168 H   0  0  0  0  0  0  0  0  0  0  0  0
    6.7136   70.0775   65.6063 H   0  0  0  0  0  0  0  0  0  0  0  0
    6.1170   68.2289   64.0544 H   0  0  0  0  0  0  0  0  0  0  0  0
    1.8193   67.1548   66.8823 H   0  0  0  0  0  0  0  0  0  0  0  0
    1.0946   68.5664   65.9611 H   0  0  0  0  0  0  0  0  0  0  0  0
    0.6330   66.1830   65.1050 H   0  0  0  0  0  0  0  0  0  0  0  0
    1.1768   67.4696   63.9420 H   0  0  0  0  0  0  0  0  0  0  0  0
    2.3160   65.3525   63.4892 H   0  0  0  0  0  0  0  0  0  0  0  0
    3.5492   67.3048   62.9408 H   0  0  0  0  0  0  0  0  0  0  0  0
    4.6932   66.1991   63.8400 H   0  0  0  0  0  0  0  0  0  0  0  0
    2.7557   65.2163   66.3655 H   0  0  0  0  0  0  0  0  0  0  0  0
    3.6415   64.7867   67.6889 H   0  0  0  0  0  0  0  0  0  0  0  0
    2.3311   63.6339   67.2591 H   0  0  0  0  0  0  0  0  0  0  0  0
    2.7024   61.1371   67.8881 H   0  0  0  0  0  0  0  0  0  0  0  0
    3.3188   59.6964   69.8274 H   0  0  0  0  0  0  0  0  0  0  0  0
    4.7470   60.6079   71.6572 H   0  0  0  0  0  0  0  0  0  0  0  0
    5.5490   62.9666   71.5542 H   0  0  0  0  0  0  0  0  0  0  0  0
    4.9346   64.4126   69.6216 H   0  0  0  0  0  0  0  0  0  0  0  0
    2.6146   69.8386   69.7026 H   0  0  0  0  0  0  0  0  0  0  0  0
    4.1221   70.3803   68.8896 H   0  0  0  0  0  0  0  0  0  0  0  0
    2.6712   71.4394   68.8896 H   0  0  0  0  0  0  0  0  0  0  0  0
  2  1  2  0
  3  2  1  0
  4  3  2  0
  5  4  1  0
  6  5  2  0
  6  1  1  0
  7  6  1  0
  8  7  1  0
  9  8  1  0
 10  5  1  0
 10  9  1  0
 11  9  1  0
 12 11  1  0
 13 12  2  0
 14 12  1  0
 15 14  1  0
 16 15  1  0
 17 16  2  0
 18 17  1  0
 19 18  2  0
 20 19  1  0
 21 16  1  0
 21 20  2  0
 23  1  1  0
 23 22  1  0
  2 24  1  0
  3 25  1  0
  4 26  1  0
  7 27  1  0
  7 28  1  0
  8 29  1  0
  8 30  1  0
  9 31  1  6
 10 32  1  0
 10 33  1  0
 11 34  1  0
 15 35  1  0
 15 36  1  0
 17 37  1  0
 18 38  1  0
 19 39  1  0
 20 40  1  0
 21 41  1  0
 22 42  1  0
 22 43  1  0
 22 44  1  0
M  END
>  <score>  (5) 
-8.494

$$$$
=
     RDKit          3D

 44 46  0  0  0  0  0  0  0  0999 V2000
    3.3440   58.7880   73.9220 C   0  0  0  0  0  0  0  0  0  0  0  0
    2.4200   57.7420   73.8500 C   0  0  0  0  0  0  0  0  0  0  0  0
    1.9520   57.2990   72.6130 C   0  0  0  0  0  0  0  0  0  0  0  0
    2.3980   57.9020   71.4410 C   0  0  0  0  0  0  0  0  0  0  0  0
    3.3170   58.9600   71.4900 C   0  0  0  0  0  0  0  0  0  0  0  0
    3.8120   59.3950   72.7370 C   0  0  0  0  0  0  0  0  0  0  0  0
    4.7950   60.5430   72.8260 C   0  0  0  0  0  0  0  0  0  0  0  0
    5.4310   60.9380   71.4940 C   0  0  0  0  0  0  0  0  0  0  0  0
    4.4180   60.9580   70.3510 C   0  0  1  0  0  0  0  0  0  0  0  0
    3.7930   59.5640   70.1880 C   0  0  0  0  0  0  0  0  0  0  0  0
    3.4090   61.9890   70.5470 N   0  0  0  0  0  0  0  0  0  0  0  0
    2.7200   62.5410   69.5090 C   0  0  0  0  0  0  0  0  0  0  0  0
    2.9720   62.3660   68.3260 O   0  0  0  0  0  0  0  0  0  0  0  0
    1.7070   63.2860   70.0040 O   0  0  0  0  0  0  0  0  0  0  0  0
    1.9010   63.7940   71.3290 C   0  0  0  0  0  0  0  0  0  0  0  0
    1.3510   62.8130   72.3320 C   0  0  0  0  0  0  0  0  0  0  0  0
    1.8910   62.7420   73.6230 C   0  0  0  0  0  0  0  0  0  0  0  0
    1.3950   61.8210   74.5470 C   0  0  0  0  0  0  0  0  0  0  0  0
    0.3610   60.9590   74.1880 C   0  0  0  0  0  0  0  0  0  0  0  0
   -0.1740   61.0120   72.9020 C   0  0  0  0  0  0  0  0  0  0  0  0
    0.3210   61.9310   71.9760 C   0  0  0  0  0  0  0  0  0  0  0  0
    3.1640   58.9820   76.2950 C   0  0  0  0  0  0  0  0  0  0  0  0
    3.8490   59.2980   75.0910 O   0  0  0  0  0  0  0  0  0  0  0  0
    2.0599   57.2655   74.7738 H   0  0  0  0  0  0  0  0  0  0  0  0
    1.2290   56.4714   72.5639 H   0  0  0  0  0  0  0  0  0  0  0  0
    2.0268   57.5460   70.4686 H   0  0  0  0  0  0  0  0  0  0  0  0
    4.2643   61.4193   73.2265 H   0  0  0  0  0  0  0  0  0  0  0  0
    5.6151   60.2027   73.4753 H   0  0  0  0  0  0  0  0  0  0  0  0
    5.8697   61.9416   71.5954 H   0  0  0  0  0  0  0  0  0  0  0  0
    6.1973   60.1871   71.2513 H   0  0  0  0  0  0  0  0  0  0  0  0
    4.9423   61.2129   69.4182 H   0  0  0  0  0  0  0  0  0  0  0  0
    4.5465   58.8939   69.7483 H   0  0  0  0  0  0  0  0  0  0  0  0
    2.9095   59.6791   69.5428 H   0  0  0  0  0  0  0  0  0  0  0  0
    3.2088   62.3126   71.5041 H   0  0  0  0  0  0  0  0  0  0  0  0
    2.9759   63.9401   71.5113 H   0  0  0  0  0  0  0  0  0  0  0  0
    1.3760   64.7551   71.4323 H   0  0  0  0  0  0  0  0  0  0  0  0
    2.7111   63.4165   73.9101 H   0  0  0  0  0  0  0  0  0  0  0  0
    1.8211   61.7757   75.5601 H   0  0  0  0  0  0  0  0  0  0  0  0
   -0.0328   60.2373   74.9188 H   0  0  0  0  0  0  0  0  0  0  0  0
   -0.9874   60.3286   72.6168 H   0  0  0  0  0  0  0  0  0  0  0  0
   -0.0996   61.9637   70.9601 H   0  0  0  0  0  0  0  0  0  0  0  0
    3.7852   59.2686   77.1564 H   0  0  0  0  0  0  0  0  0  0  0  0
    2.2120   59.5319   76.3304 H   0  0  0  0  0  0  0  0  0  0  0  0
    2.9644   57.9008   76.3304 H   0  0  0  0  0  0  0  0  0  0  0  0
  2  1  2  0
  3  2  1  0
  4  3  2  0
  5  4  1  0
  6  5  2  0
  6  1  1  0
  7  6  1  0
  8  7  1  0
  9  8  1  0
 10  5  1  0
 10  9  1  0
 11  9  1  0
 12 11  1  0
 13 12  2  0
 14 12  1  0
 15 14  1  0
 16 15  1  0
 17 16  2  0
 18 17  1  0
 19 18  2  0
 20 19  1  0
 21 16  1  0
 21 20  2  0
 23  1  1  0
 23 22  1  0
  2 24  1  0
  3 25  1  0
  4 26  1  0
  7 27  1  0
  7 28  1  0
  8 29  1  0
  8 30  1  0
  9 31  1  6
 10 32  1  0
 10 33  1  0
 11 34  1  0
 15 35  1  0
 15 36  1  0
 17 37  1  0
 18 38  1  0
 19 39  1  0
 20 40  1  0
 21 41  1  0
 22 42  1  0
 22 43  1  0
 22 44  1  0
M  END
>  <score>  (6) 
-8.176

$$$$
=
     RDKit          3D

 44 46  0  0  0  0  0  0  0  0999 V2000
    2.1990   58.9540   72.9270 C   0  0  0  0  0  0  0  0  0  0  0  0
    3.5780   58.9510   73.1550 C   0  0  0  0  0  0  0  0  0  0  0  0
    4.2100   60.0830   73.6680 C   0  0  0  0  0  0  0  0  0  0  0  0
    3.4710   61.2280   73.9500 C   0  0  0  0  0  0  0  0  0  0  0  0
    2.0890   61.2590   73.7190 C   0  0  0  0  0  0  0  0  0  0  0  0
    1.4410   60.1080   73.2240 C   0  0  0  0  0  0  0  0  0  0  0  0
   -0.0490   60.1110   72.9510 C   0  0  0  0  0  0  0  0  0  0  0  0
   -0.8010   61.2960   73.5530 C   0  0  0  0  0  0  0  0  0  0  0  0
   -0.0450   62.6110   73.3800 C   0  0  1  0  0  0  0  0  0  0  0  0
    1.3250   62.5160   74.0660 C   0  0  0  0  0  0  0  0  0  0  0  0
    0.0710   62.9820   71.9770 N   0  0  0  0  0  0  0  0  0  0  0  0
    0.1620   64.2790   71.5700 C   0  0  0  0  0  0  0  0  0  0  0  0
   -0.0050   65.2540   72.2880 O   0  0  0  0  0  0  0  0  0  0  0  0
    0.4880   64.3040   70.2590 O   0  0  0  0  0  0  0  0  0  0  0  0
    1.8330   64.6980   69.9620 C   0  0  0  0  0  0  0  0  0  0  0  0
    2.7430   63.5020   70.0600 C   0  0  0  0  0  0  0  0  0  0  0  0
    2.3450   62.2640   69.5370 C   0  0  0  0  0  0  0  0  0  0  0  0
    3.1790   61.1490   69.6420 C   0  0  0  0  0  0  0  0  0  0  0  0
    4.4150   61.2600   70.2760 C   0  0  0  0  0  0  0  0  0  0  0  0
    4.8150   62.4830   70.8120 C   0  0  0  0  0  0  0  0  0  0  0  0
    3.9820   63.5980   70.7090 C   0  0  0  0  0  0  0  0  0  0  0  0
    1.4560   56.6990   73.1820 C   0  0  0  0  0  0  0  0  0  0  0  0
    1.4930   57.8950   72.4140 O   0  0  0  0  0  0  0  0  0  0  0  0
    4.1679   58.0506   72.9285 H   0  0  0  0  0  0  0  0  0  0  0  0
    5.2947   60.0710   73.8502 H   0  0  0  0  0  0  0  0  0  0  0  0
    3.9758   62.1162   74.3577 H   0  0  0  0  0  0  0  0  0  0  0  0
   -0.1986   60.1270   71.8613 H   0  0  0  0  0  0  0  0  0  0  0  0
   -0.4561   59.2073   73.4280 H   0  0  0  0  0  0  0  0  0  0  0  0
   -1.7793   61.3827   73.0575 H   0  0  0  0  0  0  0  0  0  0  0  0
   -0.9117   61.1111   74.6317 H   0  0  0  0  0  0  0  0  0  0  0  0
   -0.6184   63.4146   73.8651 H   0  0  0  0  0  0  0  0  0  0  0  0
    1.1712   62.5401   75.1549 H   0  0  0  0  0  0  0  0  0  0  0  0
    1.9242   63.3668   73.7094 H   0  0  0  0  0  0  0  0  0  0  0  0
    0.0848   62.2367   71.2662 H   0  0  0  0  0  0  0  0  0  0  0  0
    1.8774   65.1093   68.9427 H   0  0  0  0  0  0  0  0  0  0  0  0
    2.1570   65.4636   70.6824 H   0  0  0  0  0  0  0  0  0  0  0  0
    1.3682   62.1701   69.0400 H   0  0  0  0  0  0  0  0  0  0  0  0
    2.8602   60.1827   69.2241 H   0  0  0  0  0  0  0  0  0  0  0  0
    5.0746   60.3831   70.3534 H   0  0  0  0  0  0  0  0  0  0  0  0
    5.7885   62.5694   71.3168 H   0  0  0  0  0  0  0  0  0  0  0  0
    4.2998   64.5588   71.1400 H   0  0  0  0  0  0  0  0  0  0  0  0
    1.4638   56.9505   74.2528 H   0  0  0  0  0  0  0  0  0  0  0  0
    0.5401   56.1384   72.9437 H   0  0  0  0  0  0  0  0  0  0  0  0
    2.3355   56.0828   72.9437 H   0  0  0  0  0  0  0  0  0  0  0  0
  2  1  2  0
  3  2  1  0
  4  3  2  0
  5  4  1  0
  6  5  2  0
  6  1  1  0
  7  6  1  0
  8  7  1  0
  9  8  1  0
 10  5  1  0
 10  9  1  0
 11  9  1  0
 12 11  1  0
 13 12  2  0
 14 12  1  0
 15 14  1  0
 16 15  1  0
 17 16  2  0
 18 17  1  0
 19 18  2  0
 20 19  1  0
 21 16  1  0
 21 20  2  0
 23  1  1  0
 23 22  1  0
  2 24  1  0
  3 25  1  0
  4 26  1  0
  7 27  1  0
  7 28  1  0
  8 29  1  0
  8 30  1  0
  9 31  1  1
 10 32  1  0
 10 33  1  0
 11 34  1  0
 15 35  1  0
 15 36  1  0
 17 37  1  0
 18 38  1  0
 19 39  1  0
 20 40  1  0
 21 41  1  0
 22 42  1  0
 22 43  1  0
 22 44  1  0
M  END
>  <score>  (7) 
-8.172

$$$$
=
     RDKit          3D

 44 46  0  0  0  0  0  0  0  0999 V2000
    0.8630   62.2030   74.4410 C   0  0  0  0  0  0  0  0  0  0  0  0
   -0.3490   62.5250   73.8240 C   0  0  0  0  0  0  0  0  0  0  0  0
   -1.0610   61.5540   73.1210 C   0  0  0  0  0  0  0  0  0  0  0  0
   -0.5650   60.2580   73.0220 C   0  0  0  0  0  0  0  0  0  0  0  0
    0.6530   59.9150   73.6240 C   0  0  0  0  0  0  0  0  0  0  0  0
    1.3650   60.8870   74.3570 C   0  0  0  0  0  0  0  0  0  0  0  0
    2.6910   60.5530   75.0080 C   0  0  0  0  0  0  0  0  0  0  0  0
    3.0020   59.0590   75.0850 C   0  0  0  0  0  0  0  0  0  0  0  0
    2.6380   58.3240   73.7970 C   0  0  1  0  0  0  0  0  0  0  0  0
    1.1380   58.4870   73.5120 C   0  0  0  0  0  0  0  0  0  0  0  0
    3.4580   58.7670   72.6780 N   0  0  0  0  0  0  0  0  0  0  0  0
    3.3840   58.1890   71.4460 C   0  0  0  0  0  0  0  0  0  0  0  0
    2.7700   57.1640   71.1860 O   0  0  0  0  0  0  0  0  0  0  0  0
    4.0760   58.9460   70.5660 O   0  0  0  0  0  0  0  0  0  0  0  0
    3.2900   59.6340   69.5870 C   0  0  0  0  0  0  0  0  0  0  0  0
    3.2350   61.1010   69.9220 C   0  0  0  0  0  0  0  0  0  0  0  0
    4.1550   61.9930   69.3540 C   0  0  0  0  0  0  0  0  0  0  0  0
    4.1170   63.3500   69.6780 C   0  0  0  0  0  0  0  0  0  0  0  0
    3.1650   63.8270   70.5770 C   0  0  0  0  0  0  0  0  0  0  0  0
    2.2550   62.9460   71.1590 C   0  0  0  0  0  0  0  0  0  0  0  0
    2.2910   61.5890   70.8370 C   0  0  0  0  0  0  0  0  0  0  0  0
    0.9870   64.2150   75.7210 C   0  0  0  0  0  0  0  0  0  0  0  0
    1.6380   63.0920   75.1410 O   0  0  0  0  0  0  0  0  0  0  0  0
   -0.7432   63.5496   73.8934 H   0  0  0  0  0  0  0  0  0  0  0  0
   -2.0174   61.8133   72.6434 H   0  0  0  0  0  0  0  0  0  0  0  0
   -1.1331   59.4969   72.4671 H   0  0  0  0  0  0  0  0  0  0  0  0
    3.4898   61.0406   74.4299 H   0  0  0  0  0  0  0  0  0  0  0  0
    2.6289   60.9129   76.0456 H   0  0  0  0  0  0  0  0  0  0  0  0
    4.0782   58.9310   75.2733 H   0  0  0  0  0  0  0  0  0  0  0  0
    2.3980   58.6311   75.8987 H   0  0  0  0  0  0  0  0  0  0  0  0
    2.8488   57.2526   73.9298 H   0  0  0  0  0  0  0  0  0  0  0  0
    0.5782   57.8720   74.2320 H   0  0  0  0  0  0  0  0  0  0  0  0
    0.9705   58.1697   72.4722 H   0  0  0  0  0  0  0  0  0  0  0  0
    4.1174   59.5449   72.8228 H   0  0  0  0  0  0  0  0  0  0  0  0
    3.7448   59.5022   68.5941 H   0  0  0  0  0  0  0  0  0  0  0  0
    2.2700   59.2222   69.5829 H   0  0  0  0  0  0  0  0  0  0  0  0
    4.9121   61.6209   68.6481 H   0  0  0  0  0  0  0  0  0  0  0  0
    4.8393   64.0438   69.2232 H   0  0  0  0  0  0  0  0  0  0  0  0
    3.1317   64.8977   70.8271 H   0  0  0  0  0  0  0  0  0  0  0  0
    1.5073   63.3213   71.8733 H   0  0  0  0  0  0  0  0  0  0  0  0
    1.5743   60.8974   71.3039 H   0  0  0  0  0  0  0  0  0  0  0  0
    1.0313   64.1386   76.8174 H   0  0  0  0  0  0  0  0  0  0  0  0
    1.4900   65.1381   75.3971 H   0  0  0  0  0  0  0  0  0  0  0  0
   -0.0640   64.2372   75.3971 H   0  0  0  0  0  0  0  0  0  0  0  0
  2  1  2  0
  3  2  1  0
  4  3  2  0
  5  4  1  0
  6  5  2  0
  6  1  1  0
  7  6  1  0
  8  7  1  0
  9  8  1  0
 10  5  1  0
 10  9  1  0
 11  9  1  0
 12 11  1  0
 13 12  2  0
 14 12  1  0
 15 14  1  0
 16 15  1  0
 17 16  2  0
 18 17  1  0
 19 18  2  0
 20 19  1  0
 21 16  1  0
 21 20  2  0
 23  1  1  0
 23 22  1  0
  2 24  1  0
  3 25  1  0
  4 26  1  0
  7 27  1  0
  7 28  1  0
  8 29  1  0
  8 30  1  0
  9 31  1  1
 10 32  1  0
 10 33  1  0
 11 34  1  0
 15 35  1  0
 15 36  1  0
 17 37  1  0
 18 38  1  0
 19 39  1  0
 20 40  1  0
 21 41  1  0
 22 42  1  0
 22 43  1  0
 22 44  1  0
M  END
>  <score>  (8) 
-7.931

$$$$
=
     RDKit          3D

 44 46  0  0  0  0  0  0  0  0999 V2000
    3.4890   59.5510   72.7850 C   0  0  0  0  0  0  0  0  0  0  0  0
    3.1480   58.2350   72.4610 C   0  0  0  0  0  0  0  0  0  0  0  0
    3.0530   57.8410   71.1270 C   0  0  0  0  0  0  0  0  0  0  0  0
    3.2910   58.7580   70.1080 C   0  0  0  0  0  0  0  0  0  0  0  0
    3.6250   60.0860   70.4100 C   0  0  0  0  0  0  0  0  0  0  0  0
    3.7460   60.4840   71.7570 C   0  0  0  0  0  0  0  0  0  0  0  0
    4.0930   61.9130   72.1190 C   0  0  0  0  0  0  0  0  0  0  0  0
    4.6080   62.7550   70.9520 C   0  0  0  0  0  0  0  0  0  0  0  0
    3.8120   62.5190   69.6710 C   0  0  1  0  0  0  0  0  0  0  0  0
    3.9010   61.0390   69.2690 C   0  0  0  0  0  0  0  0  0  0  0  0
    2.4330   62.9650   69.8070 N   0  0  0  0  0  0  0  0  0  0  0  0
    2.1110   64.2220   70.2230 C   0  0  0  0  0  0  0  0  0  0  0  0
    2.9020   65.0380   70.6730 O   0  0  0  0  0  0  0  0  0  0  0  0
    0.7880   64.4200   70.0320 O   0  0  0  0  0  0  0  0  0  0  0  0
    0.2900   65.7060   70.4220 C   0  0  0  0  0  0  0  0  0  0  0  0
    0.1220   66.5730   69.2020 C   0  0  0  0  0  0  0  0  0  0  0  0
    1.1380   67.4580   68.8160 C   0  0  0  0  0  0  0  0  0  0  0  0
    0.9760   68.2760   67.6960 C   0  0  0  0  0  0  0  0  0  0  0  0
   -0.2040   68.2220   66.9570 C   0  0  0  0  0  0  0  0  0  0  0  0
   -1.2270   67.3560   67.3410 C   0  0  0  0  0  0  0  0  0  0  0  0
   -1.0670   66.5380   68.4600 C   0  0  0  0  0  0  0  0  0  0  0  0
    2.9410   59.3040   75.0960 C   0  0  0  0  0  0  0  0  0  0  0  0
    3.5940   60.0330   74.0660 O   0  0  0  0  0  0  0  0  0  0  0  0
    2.9537   57.5067   73.2621 H   0  0  0  0  0  0  0  0  0  0  0  0
    2.7891   56.8022   70.8794 H   0  0  0  0  0  0  0  0  0  0  0  0
    3.2166   58.4389   69.0579 H   0  0  0  0  0  0  0  0  0  0  0  0
    3.1887   62.3956   72.5182 H   0  0  0  0  0  0  0  0  0  0  0  0
    4.9115   61.8602   72.8520 H   0  0  0  0  0  0  0  0  0  0  0  0
    4.5341   63.8184   71.2235 H   0  0  0  0  0  0  0  0  0  0  0  0
    5.6503   62.4608   70.7593 H   0  0  0  0  0  0  0  0  0  0  0  0
    4.2541   63.1228   68.8648 H   0  0  0  0  0  0  0  0  0  0  0  0
    4.9140   60.8420   68.8882 H   0  0  0  0  0  0  0  0  0  0  0  0
    3.1273   60.8638   68.5070 H   0  0  0  0  0  0  0  0  0  0  0  0
    1.6736   62.3070   69.5807 H   0  0  0  0  0  0  0  0  0  0  0  0
   -0.6821   65.5859   70.9226 H   0  0  0  0  0  0  0  0  0  0  0  0
    1.0031   66.1803   71.1123 H   0  0  0  0  0  0  0  0  0  0  0  0
    2.0693   67.5085   69.3993 H   0  0  0  0  0  0  0  0  0  0  0  0
    1.7807   68.9637   67.3968 H   0  0  0  0  0  0  0  0  0  0  0  0
   -0.3284   68.8622   66.0712 H   0  0  0  0  0  0  0  0  0  0  0  0
   -2.1611   67.3176   66.7613 H   0  0  0  0  0  0  0  0  0  0  0  0
   -1.8795   65.8609   68.7621 H   0  0  0  0  0  0  0  0  0  0  0  0
    3.2741   59.6759   76.0762 H   0  0  0  0  0  0  0  0  0  0  0  0
    1.8527   59.4351   75.0046 H   0  0  0  0  0  0  0  0  0  0  0  0
    3.1907   58.2366   75.0046 H   0  0  0  0  0  0  0  0  0  0  0  0
  2  1  2  0
  3  2  1  0
  4  3  2  0
  5  4  1  0
  6  5  2  0
  6  1  1  0
  7  6  1  0
  8  7  1  0
  9  8  1  0
 10  5  1  0
 10  9  1  0
 11  9  1  0
 12 11  1  0
 13 12  2  0
 14 12  1  0
 15 14  1  0
 16 15  1  0
 17 16  2  0
 18 17  1  0
 19 18  2  0
 20 19  1  0
 21 16  1  0
 21 20  2  0
 23  1  1  0
 23 22  1  0
  2 24  1  0
  3 25  1  0
  4 26  1  0
  7 27  1  0
  7 28  1  0
  8 29  1  0
  8 30  1  0
  9 31  1  6
 10 32  1  0
 10 33  1  0
 11 34  1  0
 15 35  1  0
 15 36  1  0
 17 37  1  0
 18 38  1  0
 19 39  1  0
 20 40  1  0
 21 41  1  0
 22 42  1  0
 22 43  1  0
 22 44  1  0
M  END
>  <score>  (9) 
-7.665

$$$$
