=
     RDKit          3D

 37 38  0  0  0  0  0  0  0  0999 V2000
    1.2210   68.1260   66.0790 C   0  0  0  0  0  0  0  0  0  0  0  0
    2.0820   67.4510   65.3000 C   0  0  0  0  0  0  0  0  0  0  0  0
    2.4730   67.8860   63.9520 C   0  0  0  0  0  0  0  0  0  0  0  0
    3.8250   67.8020   63.5850 C   0  0  0  0  0  0  0  0  0  0  0  0
    4.2520   68.2280   62.3230 C   0  0  0  0  0  0  0  0  0  0  0  0
    3.3230   68.7480   61.4380 C   0  0  0  0  0  0  0  0  0  0  0  0
    1.9820   68.8520   61.7920 C   0  0  0  0  0  0  0  0  0  0  0  0
    1.5480   68.4310   63.0450 C   0  0  0  0  0  0  0  0  0  0  0  0
    1.1220   69.3870   60.8710 O   0  0  0  0  0  0  0  0  0  0  0  0
    3.7390   69.1650   60.2060 O   0  0  0  0  0  0  0  0  0  0  0  0
    0.0180   66.7850   67.6060 O   0  0  0  0  0  0  0  0  0  0  0  0
    0.8080   67.7010   67.4320 C   0  0  0  0  0  0  0  0  0  0  0  0
    1.3950   68.4460   68.3990 O   0  0  0  0  0  0  0  0  0  0  0  0
    1.8190   69.7580   67.9930 C   0  0  0  0  0  0  0  0  0  0  0  0
    2.9210   70.2740   68.9180 C   0  0  0  0  0  0  0  0  0  0  0  0
    4.2690   70.2680   68.2460 C   0  0  0  0  0  0  0  0  0  0  0  0
    5.4000   70.7570   68.9130 C   0  0  0  0  0  0  0  0  0  0  0  0
    6.6430   70.7690   68.2780 C   0  0  0  0  0  0  0  0  0  0  0  0
    6.7660   70.2960   66.9730 C   0  0  0  0  0  0  0  0  0  0  0  0
    5.6460   69.8130   66.3000 C   0  0  0  0  0  0  0  0  0  0  0  0
    4.4010   69.8000   66.9330 C   0  0  0  0  0  0  0  0  0  0  0  0
    0.7942   69.0590   65.6824 H   0  0  0  0  0  0  0  0  0  0  0  0
    2.5187   66.5210   65.6929 H   0  0  0  0  0  0  0  0  0  0  0  0
    4.5576   67.3963   64.2983 H   0  0  0  0  0  0  0  0  0  0  0  0
    5.3115   68.1509   62.0376 H   0  0  0  0  0  0  0  0  0  0  0  0
    0.4880   68.5241   63.3239 H   0  0  0  0  0  0  0  0  0  0  0  0
    0.1599   69.4775   61.0862 H   0  0  0  0  0  0  0  0  0  0  0  0
    3.0854   69.5389   59.5632 H   0  0  0  0  0  0  0  0  0  0  0  0
    2.2028   69.7120   66.9631 H   0  0  0  0  0  0  0  0  0  0  0  0
    0.9595   70.4424   68.0469 H   0  0  0  0  0  0  0  0  0  0  0  0
    2.6787   71.3038   69.2193 H   0  0  0  0  0  0  0  0  0  0  0  0
    2.9729   69.6064   69.7907 H   0  0  0  0  0  0  0  0  0  0  0  0
    5.3079   71.1334   69.9425 H   0  0  0  0  0  0  0  0  0  0  0  0
    7.5270   71.1525   68.8086 H   0  0  0  0  0  0  0  0  0  0  0  0
    7.7466   70.3040   66.4747 H   0  0  0  0  0  0  0  0  0  0  0  0
    5.7422   69.4415   65.2691 H   0  0  0  0  0  0  0  0  0  0  0  0
    3.5190   69.4198   66.3968 H   0  0  0  0  0  0  0  0  0  0  0  0
  2  1  2  0
  3  2  1  0
  4  3  2  0
  5  4  1  0
  6  5  2  0
  7  6  1  0
  8  7  2  0
  8  3  1  0
  9  7  1  0
 10  6  1  0
 12 11  2  0
 12  1  1  0
 13 12  1  0
 14 13  1  0
 15 14  1  0
 16 15  1  0
 17 16  2  0
 18 17  1  0
 19 18  2  0
 20 19  1  0
 21 16  1  0
 21 20  2  0
  1 22  1  0
  2 23  1  0
  4 24  1  0
  5 25  1  0
  8 26  1  0
  9 27  1  0
 10 28  1  0
 14 29  1  0
 14 30  1  0
 15 31  1  0
 15 32  1  0
 17 33  1  0
 18 34  1  0
 19 35  1  0
 20 36  1  0
 21 37  1  0
M  END
>  <score>  (1) 
-9.719

$$$$
=
     RDKit          3D

 37 38  0  0  0  0  0  0  0  0999 V2000
    1.5680   68.7070   63.3180 C   0  0  0  0  0  0  0  0  0  0  0  0
    1.4640   68.1010   64.5120 C   0  0  0  0  0  0  0  0  0  0  0  0
    0.2430   68.1150   65.3290 C   0  0  0  0  0  0  0  0  0  0  0  0
    0.2400   67.4140   66.5450 C   0  0  0  0  0  0  0  0  0  0  0  0
   -0.9060   67.3740   67.3450 C   0  0  0  0  0  0  0  0  0  0  0  0
   -2.0500   68.0280   66.9180 C   0  0  0  0  0  0  0  0  0  0  0  0
   -2.0670   68.7140   65.7070 C   0  0  0  0  0  0  0  0  0  0  0  0
   -0.9320   68.7600   64.9050 C   0  0  0  0  0  0  0  0  0  0  0  0
   -3.2360   69.3280   65.3440 O   0  0  0  0  0  0  0  0  0  0  0  0
   -3.1700   67.9890   67.6980 O   0  0  0  0  0  0  0  0  0  0  0  0
    2.7610   69.0140   61.3030 O   0  0  0  0  0  0  0  0  0  0  0  0
    2.7900   68.7130   62.4870 C   0  0  0  0  0  0  0  0  0  0  0  0
    3.8840   68.3430   63.1930 O   0  0  0  0  0  0  0  0  0  0  0  0
    4.7000   69.4230   63.6770 C   0  0  0  0  0  0  0  0  0  0  0  0
    5.5940   68.9480   64.8210 C   0  0  0  0  0  0  0  0  0  0  0  0
    5.1760   69.5350   66.1440 C   0  0  0  0  0  0  0  0  0  0  0  0
    6.1200   70.1320   66.9900 C   0  0  0  0  0  0  0  0  0  0  0  0
    5.7310   70.6560   68.2240 C   0  0  0  0  0  0  0  0  0  0  0  0
    4.3980   70.5840   68.6230 C   0  0  0  0  0  0  0  0  0  0  0  0
    3.4530   69.9880   67.7920 C   0  0  0  0  0  0  0  0  0  0  0  0
    3.8400   69.4630   66.5570 C   0  0  0  0  0  0  0  0  0  0  0  0
    0.6833   69.2348   62.9323 H   0  0  0  0  0  0  0  0  0  0  0  0
    2.3422   67.5641   64.9000 H   0  0  0  0  0  0  0  0  0  0  0  0
    1.1500   66.8899   66.8725 H   0  0  0  0  0  0  0  0  0  0  0  0
   -0.8992   66.8302   68.3012 H   0  0  0  0  0  0  0  0  0  0  0  0
   -0.9534   69.2974   63.9454 H   0  0  0  0  0  0  0  0  0  0  0  0
   -3.2891   69.8261   64.4901 H   0  0  0  0  0  0  0  0  0  0  0  0
   -3.9941   68.4523   67.4043 H   0  0  0  0  0  0  0  0  0  0  0  0
    5.3302   69.7963   62.8563 H   0  0  0  0  0  0  0  0  0  0  0  0
    4.0448   70.2251   64.0475 H   0  0  0  0  0  0  0  0  0  0  0  0
    5.5366   67.8514   64.8849 H   0  0  0  0  0  0  0  0  0  0  0  0
    6.6211   69.2808   64.6106 H   0  0  0  0  0  0  0  0  0  0  0  0
    7.1739   70.1881   66.6799 H   0  0  0  0  0  0  0  0  0  0  0  0
    6.4771   71.1259   68.8816 H   0  0  0  0  0  0  0  0  0  0  0  0
    4.0920   70.9982   69.5950 H   0  0  0  0  0  0  0  0  0  0  0  0
    2.4010   69.9306   68.1084 H   0  0  0  0  0  0  0  0  0  0  0  0
    3.0909   68.9902   65.9049 H   0  0  0  0  0  0  0  0  0  0  0  0
  2  1  2  0
  3  2  1  0
  4  3  2  0
  5  4  1  0
  6  5  2  0
  7  6  1  0
  8  7  2  0
  8  3  1  0
  9  7  1  0
 10  6  1  0
 12 11  2  0
 12  1  1  0
 13 12  1  0
 14 13  1  0
 15 14  1  0
 16 15  1  0
 17 16  2  0
 18 17  1  0
 19 18  2  0
 20 19  1  0
 21 16  1  0
 21 20  2  0
  1 22  1  0
  2 23  1  0
  4 24  1  0
  5 25  1  0
  8 26  1  0
  9 27  1  0
 10 28  1  0
 14 29  1  0
 14 30  1  0
 15 31  1  0
 15 32  1  0
 17 33  1  0
 18 34  1  0
 19 35  1  0
 20 36  1  0
 21 37  1  0
M  END
>  <score>  (2) 
-9.569

$$$$
=
     RDKit          3D

 37 38  0  0  0  0  0  0  0  0999 V2000
    1.2190   68.2900   66.0990 C   0  0  0  0  0  0  0  0  0  0  0  0
    1.9640   67.5150   65.2940 C   0  0  0  0  0  0  0  0  0  0  0  0
    2.4650   67.9490   63.9830 C   0  0  0  0  0  0  0  0  0  0  0  0
    1.5460   68.4400   63.0410 C   0  0  0  0  0  0  0  0  0  0  0  0
    1.9680   68.8390   61.7700 C   0  0  0  0  0  0  0  0  0  0  0  0
    3.3090   68.7340   61.4410 C   0  0  0  0  0  0  0  0  0  0  0  0
    4.2300   68.2350   62.3580 C   0  0  0  0  0  0  0  0  0  0  0  0
    3.8190   67.8350   63.6250 C   0  0  0  0  0  0  0  0  0  0  0  0
    5.5370   68.1490   61.9600 O   0  0  0  0  0  0  0  0  0  0  0  0
    3.7230   69.1230   60.2000 O   0  0  0  0  0  0  0  0  0  0  0  0
    0.0860   66.8210   67.5610 O   0  0  0  0  0  0  0  0  0  0  0  0
    0.6970   67.8690   67.4160 C   0  0  0  0  0  0  0  0  0  0  0  0
    0.9720   68.7760   68.3830 O   0  0  0  0  0  0  0  0  0  0  0  0
    1.7850   69.8880   67.9720 C   0  0  0  0  0  0  0  0  0  0  0  0
    2.9310   70.1070   68.9580 C   0  0  0  0  0  0  0  0  0  0  0  0
    4.2590   70.2370   68.2600 C   0  0  0  0  0  0  0  0  0  0  0  0
    4.4090   69.8230   66.9300 C   0  0  0  0  0  0  0  0  0  0  0  0
    5.6480   69.9260   66.2940 C   0  0  0  0  0  0  0  0  0  0  0  0
    6.7450   70.4400   66.9830 C   0  0  0  0  0  0  0  0  0  0  0  0
    6.6070   70.8490   68.3070 C   0  0  0  0  0  0  0  0  0  0  0  0
    5.3690   70.7470   68.9450 C   0  0  0  0  0  0  0  0  0  0  0  0
    0.9812   69.3073   65.7547 H   0  0  0  0  0  0  0  0  0  0  0  0
    2.2128   66.4993   65.6351 H   0  0  0  0  0  0  0  0  0  0  0  0
    0.4810   68.5113   63.3071 H   0  0  0  0  0  0  0  0  0  0  0  0
    1.2444   69.2314   61.0403 H   0  0  0  0  0  0  0  0  0  0  0  0
    4.5492   67.4320   64.3422 H   0  0  0  0  0  0  0  0  0  0  0  0
    6.2222   67.7994   62.5832 H   0  0  0  0  0  0  0  0  0  0  0  0
    4.6790   69.0529   59.9526 H   0  0  0  0  0  0  0  0  0  0  0  0
    2.2003   69.6834   66.9742 H   0  0  0  0  0  0  0  0  0  0  0  0
    1.1612   70.7936   67.9451 H   0  0  0  0  0  0  0  0  0  0  0  0
    2.7379   71.0277   69.5281 H   0  0  0  0  0  0  0  0  0  0  0  0
    2.9803   69.2310   69.6215 H   0  0  0  0  0  0  0  0  0  0  0  0
    3.5460   69.4145   66.3837 H   0  0  0  0  0  0  0  0  0  0  0  0
    5.7581   69.6013   65.2488 H   0  0  0  0  0  0  0  0  0  0  0  0
    7.7202   70.5227   66.4808 H   0  0  0  0  0  0  0  0  0  0  0  0
    7.4738   71.2527   68.8507 H   0  0  0  0  0  0  0  0  0  0  0  0
    5.2650   71.0691   69.9916 H   0  0  0  0  0  0  0  0  0  0  0  0
  2  1  2  0
  3  2  1  0
  4  3  2  0
  5  4  1  0
  6  5  2  0
  7  6  1  0
  8  7  2  0
  8  3  1  0
  9  7  1  0
 10  6  1  0
 12 11  2  0
 12  1  1  0
 13 12  1  0
 14 13  1  0
 15 14  1  0
 16 15  1  0
 17 16  2  0
 18 17  1  0
 19 18  2  0
 20 19  1  0
 21 16  1  0
 21 20  2  0
  1 22  1  0
  2 23  1  0
  4 24  1  0
  5 25  1  0
  8 26  1  0
  9 27  1  0
 10 28  1  0
 14 29  1  0
 14 30  1  0
 15 31  1  0
 15 32  1  0
 17 33  1  0
 18 34  1  0
 19 35  1  0
 20 36  1  0
 21 37  1  0
M  END
>  <score>  (3) 
-9.503

$$$$
=
     RDKit          3D

 37 38  0  0  0  0  0  0  0  0999 V2000
    0.9460   67.8320   66.2590 C   0  0  0  0  0  0  0  0  0  0  0  0
    1.5010   67.9510   65.0420 C   0  0  0  0  0  0  0  0  0  0  0  0
    2.4840   67.0020   64.5000 C   0  0  0  0  0  0  0  0  0  0  0  0
    2.5450   65.7110   65.0490 C   0  0  0  0  0  0  0  0  0  0  0  0
    3.4810   64.7810   64.5870 C   0  0  0  0  0  0  0  0  0  0  0  0
    4.3610   65.1510   63.5840 C   0  0  0  0  0  0  0  0  0  0  0  0
    4.3230   66.4310   63.0400 C   0  0  0  0  0  0  0  0  0  0  0  0
    3.3950   67.3640   63.4930 C   0  0  0  0  0  0  0  0  0  0  0  0
    5.2300   66.7300   62.0590 O   0  0  0  0  0  0  0  0  0  0  0  0
    5.2750   64.2430   63.1320 O   0  0  0  0  0  0  0  0  0  0  0  0
   -1.0750   69.0540   66.2470 O   0  0  0  0  0  0  0  0  0  0  0  0
   -0.0350   68.7800   66.8260 C   0  0  0  0  0  0  0  0  0  0  0  0
    0.3750   69.2830   68.0150 O   0  0  0  0  0  0  0  0  0  0  0  0
    1.4540   70.2290   67.9460 C   0  0  0  0  0  0  0  0  0  0  0  0
    2.6430   69.7480   68.7750 C   0  0  0  0  0  0  0  0  0  0  0  0
    3.9570   70.0300   68.0940 C   0  0  0  0  0  0  0  0  0  0  0  0
    4.9800   70.7090   68.7700 C   0  0  0  0  0  0  0  0  0  0  0  0
    6.1870   70.9860   68.1270 C   0  0  0  0  0  0  0  0  0  0  0  0
    6.3810   70.5900   66.8050 C   0  0  0  0  0  0  0  0  0  0  0  0
    5.3680   69.9190   66.1230 C   0  0  0  0  0  0  0  0  0  0  0  0
    4.1590   69.6410   66.7640 C   0  0  0  0  0  0  0  0  0  0  0  0
    1.2418   66.9703   66.8755 H   0  0  0  0  0  0  0  0  0  0  0  0
    1.2037   68.8055   64.4164 H   0  0  0  0  0  0  0  0  0  0  0  0
    1.8483   65.4282   65.8519 H   0  0  0  0  0  0  0  0  0  0  0  0
    3.5179   63.7683   65.0148 H   0  0  0  0  0  0  0  0  0  0  0  0
    3.3747   68.3775   63.0659 H   0  0  0  0  0  0  0  0  0  0  0  0
    5.2348   67.6302   61.6470 H   0  0  0  0  0  0  0  0  0  0  0  0
    5.9100   64.4946   62.4153 H   0  0  0  0  0  0  0  0  0  0  0  0
    1.7670   70.3448   66.8979 H   0  0  0  0  0  0  0  0  0  0  0  0
    1.1076   71.1926   68.3478 H   0  0  0  0  0  0  0  0  0  0  0  0
    2.6293   70.2624   69.7472 H   0  0  0  0  0  0  0  0  0  0  0  0
    2.5518   68.6589   68.8996 H   0  0  0  0  0  0  0  0  0  0  0  0
    4.8306   71.0252   69.8129 H   0  0  0  0  0  0  0  0  0  0  0  0
    6.9863   71.5175   68.6642 H   0  0  0  0  0  0  0  0  0  0  0  0
    7.3338   70.8071   66.3000 H   0  0  0  0  0  0  0  0  0  0  0  0
    5.5208   69.6081   65.0790 H   0  0  0  0  0  0  0  0  0  0  0  0
    3.3608   69.1135   66.2212 H   0  0  0  0  0  0  0  0  0  0  0  0
  2  1  2  0
  3  2  1  0
  4  3  2  0
  5  4  1  0
  6  5  2  0
  7  6  1  0
  8  7  2  0
  8  3  1  0
  9  7  1  0
 10  6  1  0
 12 11  2  0
 12  1  1  0
 13 12  1  0
 14 13  1  0
 15 14  1  0
 16 15  1  0
 17 16  2  0
 18 17  1  0
 19 18  2  0
 20 19  1  0
 21 16  1  0
 21 20  2  0
  1 22  1  0
  2 23  1  0
  4 24  1  0
  5 25  1  0
  8 26  1  0
  9 27  1  0
 10 28  1  0
 14 29  1  0
 14 30  1  0
 15 31  1  0
 15 32  1  0
 17 33  1  0
 18 34  1  0
 19 35  1  0
 20 36  1  0
 21 37  1  0
M  END
>  <score>  (4) 
-9.011

$$$$
=
     RDKit          3D

 37 38  0  0  0  0  0  0  0  0999 V2000
    2.4910   67.5610   64.2230 C   0  0  0  0  0  0  0  0  0  0  0  0
    1.6170   68.5210   64.5650 C   0  0  0  0  0  0  0  0  0  0  0  0
    0.4270   68.2810   65.3940 C   0  0  0  0  0  0  0  0  0  0  0  0
   -0.7630   68.9530   65.0710 C   0  0  0  0  0  0  0  0  0  0  0  0
   -1.9140   68.7790   65.8440 C   0  0  0  0  0  0  0  0  0  0  0  0
   -1.8670   67.9430   66.9470 C   0  0  0  0  0  0  0  0  0  0  0  0
   -0.6910   67.2820   67.2890 C   0  0  0  0  0  0  0  0  0  0  0  0
    0.4600   67.4480   66.5250 C   0  0  0  0  0  0  0  0  0  0  0  0
   -0.7140   66.4800   68.3980 O   0  0  0  0  0  0  0  0  0  0  0  0
   -2.9900   67.7740   67.7030 O   0  0  0  0  0  0  0  0  0  0  0  0
    4.3230   66.8470   62.9130 O   0  0  0  0  0  0  0  0  0  0  0  0
    3.6860   67.7790   63.3820 C   0  0  0  0  0  0  0  0  0  0  0  0
    3.9630   69.0960   63.2280 O   0  0  0  0  0  0  0  0  0  0  0  0
    5.2240   69.5280   63.7640 C   0  0  0  0  0  0  0  0  0  0  0  0
    5.5800   68.7240   65.0120 C   0  0  0  0  0  0  0  0  0  0  0  0
    5.3620   69.5160   66.2750 C   0  0  0  0  0  0  0  0  0  0  0  0
    4.1020   69.5550   66.8850 C   0  0  0  0  0  0  0  0  0  0  0  0
    3.9010   70.3080   68.0430 C   0  0  0  0  0  0  0  0  0  0  0  0
    4.9560   71.0300   68.5980 C   0  0  0  0  0  0  0  0  0  0  0  0
    6.2120   71.0020   67.9950 C   0  0  0  0  0  0  0  0  0  0  0  0
    6.4150   70.2500   66.8370 C   0  0  0  0  0  0  0  0  0  0  0  0
    2.3046   66.5425   64.5943 H   0  0  0  0  0  0  0  0  0  0  0  0
    1.8016   69.5439   64.2049 H   0  0  0  0  0  0  0  0  0  0  0  0
   -0.7894   69.6239   64.1997 H   0  0  0  0  0  0  0  0  0  0  0  0
   -2.8461   69.2998   65.5796 H   0  0  0  0  0  0  0  0  0  0  0  0
    1.3895   66.9305   66.8046 H   0  0  0  0  0  0  0  0  0  0  0  0
    0.1027   65.9930   68.6737 H   0  0  0  0  0  0  0  0  0  0  0  0
   -2.9693   67.1790   68.4940 H   0  0  0  0  0  0  0  0  0  0  0  0
    6.0077   69.3844   63.0055 H   0  0  0  0  0  0  0  0  0  0  0  0
    5.1487   70.5912   64.0361 H   0  0  0  0  0  0  0  0  0  0  0  0
    4.9506   67.8224   65.0451 H   0  0  0  0  0  0  0  0  0  0  0  0
    6.6470   68.4626   64.9548 H   0  0  0  0  0  0  0  0  0  0  0  0
    3.2657   68.9889   66.4490 H   0  0  0  0  0  0  0  0  0  0  0  0
    2.9091   70.3316   68.5179 H   0  0  0  0  0  0  0  0  0  0  0  0
    4.7973   71.6217   69.5116 H   0  0  0  0  0  0  0  0  0  0  0  0
    7.0442   71.5732   68.4322 H   0  0  0  0  0  0  0  0  0  0  0  0
    7.4074   70.2334   66.3627 H   0  0  0  0  0  0  0  0  0  0  0  0
  2  1  2  0
  3  2  1  0
  4  3  2  0
  5  4  1  0
  6  5  2  0
  7  6  1  0
  8  7  2  0
  8  3  1  0
  9  7  1  0
 10  6  1  0
 12 11  2  0
 12  1  1  0
 13 12  1  0
 14 13  1  0
 15 14  1  0
 16 15  1  0
 17 16  2  0
 18 17  1  0
 19 18  2  0
 20 19  1  0
 21 16  1  0
 21 20  2  0
  1 22  1  0
  2 23  1  0
  4 24  1  0
  5 25  1  0
  8 26  1  0
  9 27  1  0
 10 28  1  0
 14 29  1  0
 14 30  1  0
 15 31  1  0
 15 32  1  0
 17 33  1  0
 18 34  1  0
 19 35  1  0
 20 36  1  0
 21 37  1  0
M  END
>  <score>  (5) 
-9.011

$$$$
=
     RDKit          3D

 37 38  0  0  0  0  0  0  0  0999 V2000
    1.1640   67.6730   67.1460 C   0  0  0  0  0  0  0  0  0  0  0  0
    1.5700   68.8080   66.5550 C   0  0  0  0  0  0  0  0  0  0  0  0
    2.9760   69.2300   66.4840 C   0  0  0  0  0  0  0  0  0  0  0  0
    3.5800   69.7520   67.6390 C   0  0  0  0  0  0  0  0  0  0  0  0
    4.9070   70.1920   67.6150 C   0  0  0  0  0  0  0  0  0  0  0  0
    5.6200   70.1210   66.4310 C   0  0  0  0  0  0  0  0  0  0  0  0
    5.0310   69.6210   65.2740 C   0  0  0  0  0  0  0  0  0  0  0  0
    3.7110   69.1790   65.2870 C   0  0  0  0  0  0  0  0  0  0  0  0
    5.7930   69.5890   64.1370 O   0  0  0  0  0  0  0  0  0  0  0  0
    6.9150   70.5510   66.4060 O   0  0  0  0  0  0  0  0  0  0  0  0
   -1.0440   67.4470   66.3380 O   0  0  0  0  0  0  0  0  0  0  0  0
   -0.2450   67.2360   67.2380 C   0  0  0  0  0  0  0  0  0  0  0  0
   -0.5060   66.6100   68.4110 O   0  0  0  0  0  0  0  0  0  0  0  0
    0.5330   66.6960   69.4000 C   0  0  0  0  0  0  0  0  0  0  0  0
    0.1330   65.9390   70.6640 C   0  0  0  0  0  0  0  0  0  0  0  0
    0.9540   64.6910   70.8580 C   0  0  0  0  0  0  0  0  0  0  0  0
    2.2500   64.6000   70.3330 C   0  0  0  0  0  0  0  0  0  0  0  0
    2.9980   63.4330   70.4970 C   0  0  0  0  0  0  0  0  0  0  0  0
    2.4570   62.3480   71.1830 C   0  0  0  0  0  0  0  0  0  0  0  0
    1.1670   62.4260   71.7040 C   0  0  0  0  0  0  0  0  0  0  0  0
    0.4170   63.5920   71.5410 C   0  0  0  0  0  0  0  0  0  0  0  0
    1.9321   67.0242   67.5921 H   0  0  0  0  0  0  0  0  0  0  0  0
    0.8086   69.4578   66.0989 H   0  0  0  0  0  0  0  0  0  0  0  0
    3.0028   69.8155   68.5732 H   0  0  0  0  0  0  0  0  0  0  0  0
    5.3784   70.5896   68.5259 H   0  0  0  0  0  0  0  0  0  0  0  0
    3.2468   68.7928   64.3676 H   0  0  0  0  0  0  0  0  0  0  0  0
    5.4093   69.2402   63.2936 H   0  0  0  0  0  0  0  0  0  0  0  0
    7.4356   70.5054   65.5652 H   0  0  0  0  0  0  0  0  0  0  0  0
    1.4568   66.2586   68.9933 H   0  0  0  0  0  0  0  0  0  0  0  0
    0.6942   67.7538   69.6552 H   0  0  0  0  0  0  0  0  0  0  0  0
    0.2773   66.5977   71.5331 H   0  0  0  0  0  0  0  0  0  0  0  0
   -0.9207   65.6401   70.5619 H   0  0  0  0  0  0  0  0  0  0  0  0
    2.6804   65.4533   69.7884 H   0  0  0  0  0  0  0  0  0  0  0  0
    4.0156   63.3700   70.0842 H   0  0  0  0  0  0  0  0  0  0  0  0
    3.0482   61.4296   71.3134 H   0  0  0  0  0  0  0  0  0  0  0  0
    0.7394   61.5683   72.2440 H   0  0  0  0  0  0  0  0  0  0  0  0
   -0.6020   63.6483   71.9514 H   0  0  0  0  0  0  0  0  0  0  0  0
  2  1  2  0
  3  2  1  0
  4  3  2  0
  5  4  1  0
  6  5  2  0
  7  6  1  0
  8  7  2  0
  8  3  1  0
  9  7  1  0
 10  6  1  0
 12 11  2  0
 12  1  1  0
 13 12  1  0
 14 13  1  0
 15 14  1  0
 16 15  1  0
 17 16  2  0
 18 17  1  0
 19 18  2  0
 20 19  1  0
 21 16  1  0
 21 20  2  0
  1 22  1  0
  2 23  1  0
  4 24  1  0
  5 25  1  0
  8 26  1  0
  9 27  1  0
 10 28  1  0
 14 29  1  0
 14 30  1  0
 15 31  1  0
 15 32  1  0
 17 33  1  0
 18 34  1  0
 19 35  1  0
 20 36  1  0
 21 37  1  0
M  END
>  <score>  (6) 
-8.896

$$$$
=
     RDKit          3D

 37 38  0  0  0  0  0  0  0  0999 V2000
    3.9290   68.9780   63.8100 C   0  0  0  0  0  0  0  0  0  0  0  0
    3.4840   69.0580   65.0740 C   0  0  0  0  0  0  0  0  0  0  0  0
    4.2770   69.6040   66.1840 C   0  0  0  0  0  0  0  0  0  0  0  0
    5.6470   69.8370   65.9790 C   0  0  0  0  0  0  0  0  0  0  0  0
    6.4500   70.3300   67.0110 C   0  0  0  0  0  0  0  0  0  0  0  0
    5.8820   70.5760   68.2500 C   0  0  0  0  0  0  0  0  0  0  0  0
    4.5290   70.3350   68.4730 C   0  0  0  0  0  0  0  0  0  0  0  0
    3.7210   69.8450   67.4510 C   0  0  0  0  0  0  0  0  0  0  0  0
    4.0380   70.5910   69.7240 O   0  0  0  0  0  0  0  0  0  0  0  0
    6.6650   71.0570   69.2590 O   0  0  0  0  0  0  0  0  0  0  0  0
    3.5600   67.4800   62.0210 O   0  0  0  0  0  0  0  0  0  0  0  0
    3.1510   68.4230   62.6830 C   0  0  0  0  0  0  0  0  0  0  0  0
    1.9860   69.0870   62.4950 O   0  0  0  0  0  0  0  0  0  0  0  0
    0.7950   68.3370   62.7820 C   0  0  0  0  0  0  0  0  0  0  0  0
   -0.1930   69.1840   63.5820 C   0  0  0  0  0  0  0  0  0  0  0  0
   -0.4530   68.6080   64.9490 C   0  0  0  0  0  0  0  0  0  0  0  0
   -1.7100   68.7430   65.5530 C   0  0  0  0  0  0  0  0  0  0  0  0
   -1.9390   68.2260   66.8290 C   0  0  0  0  0  0  0  0  0  0  0  0
   -0.9140   67.5720   67.5120 C   0  0  0  0  0  0  0  0  0  0  0  0
    0.3400   67.4380   66.9220 C   0  0  0  0  0  0  0  0  0  0  0  0
    0.5720   67.9550   65.6460 C   0  0  0  0  0  0  0  0  0  0  0  0
    4.9420   69.3511   63.5988 H   0  0  0  0  0  0  0  0  0  0  0  0
    2.4687   68.6944   65.2909 H   0  0  0  0  0  0  0  0  0  0  0  0
    6.0927   69.6291   64.9951 H   0  0  0  0  0  0  0  0  0  0  0  0
    7.5200   70.5203   66.8414 H   0  0  0  0  0  0  0  0  0  0  0  0
    2.6545   69.6479   67.6344 H   0  0  0  0  0  0  0  0  0  0  0  0
    3.0811   70.4324   69.9222 H   0  0  0  0  0  0  0  0  0  0  0  0
    6.2705   71.2367   70.1490 H   0  0  0  0  0  0  0  0  0  0  0  0
    0.3247   68.0293   61.8364 H   0  0  0  0  0  0  0  0  0  0  0  0
    1.0671   67.4525   63.3767 H   0  0  0  0  0  0  0  0  0  0  0  0
    0.2193   70.1974   63.6963 H   0  0  0  0  0  0  0  0  0  0  0  0
   -1.1466   69.2016   63.0340 H   0  0  0  0  0  0  0  0  0  0  0  0
   -2.5210   69.2594   65.0185 H   0  0  0  0  0  0  0  0  0  0  0  0
   -2.9289   68.3345   67.2964 H   0  0  0  0  0  0  0  0  0  0  0  0
   -1.0961   67.1622   68.5164 H   0  0  0  0  0  0  0  0  0  0  0  0
    1.1490   66.9241   67.4619 H   0  0  0  0  0  0  0  0  0  0  0  0
    1.5652   67.8490   65.1853 H   0  0  0  0  0  0  0  0  0  0  0  0
  2  1  2  0
  3  2  1  0
  4  3  2  0
  5  4  1  0
  6  5  2  0
  7  6  1  0
  8  7  2  0
  8  3  1  0
  9  7  1  0
 10  6  1  0
 12 11  2  0
 12  1  1  0
 13 12  1  0
 14 13  1  0
 15 14  1  0
 16 15  1  0
 17 16  2  0
 18 17  1  0
 19 18  2  0
 20 19  1  0
 21 16  1  0
 21 20  2  0
  1 22  1  0
  2 23  1  0
  4 24  1  0
  5 25  1  0
  8 26  1  0
  9 27  1  0
 10 28  1  0
 14 29  1  0
 14 30  1  0
 15 31  1  0
 15 32  1  0
 17 33  1  0
 18 34  1  0
 19 35  1  0
 20 36  1  0
 21 37  1  0
M  END
>  <score>  (7) 
-8.862

$$$$
=
     RDKit          3D

 37 38  0  0  0  0  0  0  0  0999 V2000
    1.6740   68.1900   67.7860 C   0  0  0  0  0  0  0  0  0  0  0  0
    2.0670   69.4670   67.6540 C   0  0  0  0  0  0  0  0  0  0  0  0
    3.4220   69.9390   67.9740 C   0  0  0  0  0  0  0  0  0  0  0  0
    3.6390   70.5720   69.2080 C   0  0  0  0  0  0  0  0  0  0  0  0
    4.9030   71.0620   69.5480 C   0  0  0  0  0  0  0  0  0  0  0  0
    5.9430   70.9300   68.6430 C   0  0  0  0  0  0  0  0  0  0  0  0
    5.7400   70.3190   67.4090 C   0  0  0  0  0  0  0  0  0  0  0  0
    4.4860   69.8270   67.0630 C   0  0  0  0  0  0  0  0  0  0  0  0
    6.8110   70.2320   66.5610 O   0  0  0  0  0  0  0  0  0  0  0  0
    7.1780   71.4090   68.9730 O   0  0  0  0  0  0  0  0  0  0  0  0
   -0.2670   66.9170   68.2170 O   0  0  0  0  0  0  0  0  0  0  0  0
    0.3150   67.6980   67.4800 C   0  0  0  0  0  0  0  0  0  0  0  0
   -0.1580   68.2060   66.3180 O   0  0  0  0  0  0  0  0  0  0  0  0
    0.4560   67.6930   65.1240 C   0  0  0  0  0  0  0  0  0  0  0  0
    0.5370   68.7790   64.0530 C   0  0  0  0  0  0  0  0  0  0  0  0
    1.8830   68.8080   63.3790 C   0  0  0  0  0  0  0  0  0  0  0  0
    3.0580   68.9160   64.1350 C   0  0  0  0  0  0  0  0  0  0  0  0
    4.3020   68.9640   63.5040 C   0  0  0  0  0  0  0  0  0  0  0  0
    4.3820   68.9080   62.1130 C   0  0  0  0  0  0  0  0  0  0  0  0
    3.2190   68.8060   61.3530 C   0  0  0  0  0  0  0  0  0  0  0  0
    1.9730   68.7580   61.9820 C   0  0  0  0  0  0  0  0  0  0  0  0
    2.4142   67.4605   68.1465 H   0  0  0  0  0  0  0  0  0  0  0  0
    1.3346   70.2006   67.2861 H   0  0  0  0  0  0  0  0  0  0  0  0
    2.8044   70.6837   69.9157 H   0  0  0  0  0  0  0  0  0  0  0  0
    5.0696   71.5461   70.5216 H   0  0  0  0  0  0  0  0  0  0  0  0
    4.3282   69.3534   66.0828 H   0  0  0  0  0  0  0  0  0  0  0  0
    6.7068   69.8044   65.6742 H   0  0  0  0  0  0  0  0  0  0  0  0
    7.9298   71.3209   68.3349 H   0  0  0  0  0  0  0  0  0  0  0  0
    1.4713   67.3426   65.3613 H   0  0  0  0  0  0  0  0  0  0  0  0
   -0.1532   66.8612   64.7407 H   0  0  0  0  0  0  0  0  0  0  0  0
   -0.2360   68.5876   63.2941 H   0  0  0  0  0  0  0  0  0  0  0  0
    0.3817   69.7514   64.5431 H   0  0  0  0  0  0  0  0  0  0  0  0
    2.9995   68.9632   65.2324 H   0  0  0  0  0  0  0  0  0  0  0  0
    5.2200   69.0461   64.1044 H   0  0  0  0  0  0  0  0  0  0  0  0
    5.3627   68.9443   61.6162 H   0  0  0  0  0  0  0  0  0  0  0  0
    3.2821   68.7632   60.2556 H   0  0  0  0  0  0  0  0  0  0  0  0
    1.0575   68.6805   61.3772 H   0  0  0  0  0  0  0  0  0  0  0  0
  2  1  2  0
  3  2  1  0
  4  3  2  0
  5  4  1  0
  6  5  2  0
  7  6  1  0
  8  7  2  0
  8  3  1  0
  9  7  1  0
 10  6  1  0
 12 11  2  0
 12  1  1  0
 13 12  1  0
 14 13  1  0
 15 14  1  0
 16 15  1  0
 17 16  2  0
 18 17  1  0
 19 18  2  0
 20 19  1  0
 21 16  1  0
 21 20  2  0
  1 22  1  0
  2 23  1  0
  4 24  1  0
  5 25  1  0
  8 26  1  0
  9 27  1  0
 10 28  1  0
 14 29  1  0
 14 30  1  0
 15 31  1  0
 15 32  1  0
 17 33  1  0
 18 34  1  0
 19 35  1  0
 20 36  1  0
 21 37  1  0
M  END
>  <score>  (8) 
-8.709

$$$$
=
     RDKit          3D

 37 38  0  0  0  0  0  0  0  0999 V2000
    1.7210   65.6320   70.1910 C   0  0  0  0  0  0  0  0  0  0  0  0
    1.7180   64.2900   70.2210 C   0  0  0  0  0  0  0  0  0  0  0  0
    2.7240   63.4900   70.9340 C   0  0  0  0  0  0  0  0  0  0  0  0
    3.9890   63.3240   70.3460 C   0  0  0  0  0  0  0  0  0  0  0  0
    4.9710   62.5500   70.9710 C   0  0  0  0  0  0  0  0  0  0  0  0
    4.6790   61.9340   72.1770 C   0  0  0  0  0  0  0  0  0  0  0  0
    3.4260   62.0770   72.7640 C   0  0  0  0  0  0  0  0  0  0  0  0
    2.4420   62.8450   72.1500 C   0  0  0  0  0  0  0  0  0  0  0  0
    3.2040   61.4310   73.9500 O   0  0  0  0  0  0  0  0  0  0  0  0
    5.6380   61.1770   72.7870 O   0  0  0  0  0  0  0  0  0  0  0  0
   -0.3250   65.9820   69.0630 O   0  0  0  0  0  0  0  0  0  0  0  0
    0.7250   66.4540   69.4720 C   0  0  0  0  0  0  0  0  0  0  0  0
    1.1330   67.7380   69.3330 O   0  0  0  0  0  0  0  0  0  0  0  0
    1.4230   68.1500   67.9870 C   0  0  0  0  0  0  0  0  0  0  0  0
    2.3060   69.3970   67.9870 C   0  0  0  0  0  0  0  0  0  0  0  0
    3.2780   69.4000   66.8360 C   0  0  0  0  0  0  0  0  0  0  0  0
    4.5870   69.8690   67.0090 C   0  0  0  0  0  0  0  0  0  0  0  0
    5.4770   69.8900   65.9340 C   0  0  0  0  0  0  0  0  0  0  0  0
    5.0660   69.4460   64.6780 C   0  0  0  0  0  0  0  0  0  0  0  0
    3.7640   68.9830   64.4950 C   0  0  0  0  0  0  0  0  0  0  0  0
    2.8720   68.9610   65.5690 C   0  0  0  0  0  0  0  0  0  0  0  0
    2.5187   66.1554   70.7386 H   0  0  0  0  0  0  0  0  0  0  0  0
    0.9187   63.7598   69.6824 H   0  0  0  0  0  0  0  0  0  0  0  0
    4.2092   63.8084   69.3832 H   0  0  0  0  0  0  0  0  0  0  0  0
    5.9632   62.4315   70.5110 H   0  0  0  0  0  0  0  0  0  0  0  0
    1.4496   62.9467   72.6134 H   0  0  0  0  0  0  0  0  0  0  0  0
    2.3250   61.5083   74.3988 H   0  0  0  0  0  0  0  0  0  0  0  0
    5.4426   60.7313   73.6491 H   0  0  0  0  0  0  0  0  0  0  0  0
    1.9464   67.3359   67.4642 H   0  0  0  0  0  0  0  0  0  0  0  0
    0.4778   68.3837   67.4752 H   0  0  0  0  0  0  0  0  0  0  0  0
    1.6638   70.2869   67.9119 H   0  0  0  0  0  0  0  0  0  0  0  0
    2.8860   69.4027   68.9216 H   0  0  0  0  0  0  0  0  0  0  0  0
    4.9151   70.2226   67.9976 H   0  0  0  0  0  0  0  0  0  0  0  0
    6.5038   70.2573   66.0780 H   0  0  0  0  0  0  0  0  0  0  0  0
    5.7688   69.4610   63.8319 H   0  0  0  0  0  0  0  0  0  0  0  0
    3.4390   68.6346   63.5035 H   0  0  0  0  0  0  0  0  0  0  0  0
    1.8448   68.5970   65.4195 H   0  0  0  0  0  0  0  0  0  0  0  0
  2  1  2  0
  3  2  1  0
  4  3  2  0
  5  4  1  0
  6  5  2  0
  7  6  1  0
  8  7  2  0
  8  3  1  0
  9  7  1  0
 10  6  1  0
 12 11  2  0
 12  1  1  0
 13 12  1  0
 14 13  1  0
 15 14  1  0
 16 15  1  0
 17 16  2  0
 18 17  1  0
 19 18  2  0
 20 19  1  0
 21 16  1  0
 21 20  2  0
  1 22  1  0
  2 23  1  0
  4 24  1  0
  5 25  1  0
  8 26  1  0
  9 27  1  0
 10 28  1  0
 14 29  1  0
 14 30  1  0
 15 31  1  0
 15 32  1  0
 17 33  1  0
 18 34  1  0
 19 35  1  0
 20 36  1  0
 21 37  1  0
M  END
>  <score>  (9) 
-8.68

$$$$
