=
     RDKit          3D

 34 34  0  0  0  0  0  0  0  0999 V2000
    1.9030   66.8910   66.8230 O   0  0  0  0  0  0  0  0  0  0  0  0
    1.7120   67.8550   66.0970 C   0  0  0  0  0  0  0  0  0  0  0  0
    2.2520   69.1030   66.1790 N   0  0  0  0  0  0  0  0  0  0  0  0
    3.1660   69.5910   67.1360 C   0  0  0  0  0  0  0  0  0  0  0  0
    2.6620   69.9310   68.3920 C   0  0  0  0  0  0  0  0  0  0  0  0
    3.5370   70.4180   69.3510 C   0  0  0  0  0  0  0  0  0  0  0  0
    4.8550   70.5840   69.1390 N   0  0  0  0  0  0  0  0  0  0  0  0
    5.3140   70.2440   67.9200 C   0  0  0  0  0  0  0  0  0  0  0  0
    4.5270   69.7490   66.8930 C   0  0  0  0  0  0  0  0  0  0  0  0
    6.9990   70.4720   67.6990 Cl  0  0  0  0  0  0  0  0  0  0  0  0
    0.8850   67.8020   65.0140 O   0  0  0  0  0  0  0  0  0  0  0  0
    1.3390   68.5630   63.8800 C   0  0  0  0  0  0  0  0  0  0  0  0
    1.9660   67.6580   62.8030 C   0  0  0  0  0  0  0  0  0  0  0  0
    3.3710   68.0920   62.3310 N   0  0  0  0  0  4  0  0  0  0  0  0
    4.3140   66.8870   62.2700 C   0  0  0  0  0  0  0  0  0  0  0  0
    3.9330   69.0720   63.3650 C   0  0  0  0  0  0  0  0  0  0  0  0
    3.3250   68.7870   60.9800 C   0  0  0  0  0  0  0  0  0  0  0  0
    1.9568   69.7719   65.4535 H   0  0  0  0  0  0  0  0  0  0  0  0
    1.5915   69.8149   68.6169 H   0  0  0  0  0  0  0  0  0  0  0  0
    3.1315   70.6830   70.3386 H   0  0  0  0  0  0  0  0  0  0  0  0
    4.9637   69.4893   65.9174 H   0  0  0  0  0  0  0  0  0  0  0  0
    0.4826   69.0972   63.4428 H   0  0  0  0  0  0  0  0  0  0  0  0
    2.1082   69.2693   64.2258 H   0  0  0  0  0  0  0  0  0  0  0  0
    2.0419   66.6401   63.2130 H   0  0  0  0  0  0  0  0  0  0  0  0
    1.3095   67.7232   61.9228 H   0  0  0  0  0  0  0  0  0  0  0  0
    4.5653   66.5659   63.2917 H   0  0  0  0  0  0  0  0  0  0  0  0
    3.8198   66.0612   61.7373 H   0  0  0  0  0  0  0  0  0  0  0  0
    5.2344   67.1683   61.7373 H   0  0  0  0  0  0  0  0  0  0  0  0
    3.7192   68.6992   64.3776 H   0  0  0  0  0  0  0  0  0  0  0  0
    5.0208   69.1635   63.2301 H   0  0  0  0  0  0  0  0  0  0  0  0
    3.4626   70.0571   63.2301 H   0  0  0  0  0  0  0  0  0  0  0  0
    3.2530   69.8744   61.1293 H   0  0  0  0  0  0  0  0  0  0  0  0
    4.2405   68.5541   60.4165 H   0  0  0  0  0  0  0  0  0  0  0  0
    2.4482   68.4354   60.4165 H   0  0  0  0  0  0  0  0  0  0  0  0
  2  1  2  0
  3  2  1  0
  4  3  1  0
  5  4  2  0
  6  5  1  0
  7  6  2  0
  8  7  1  0
  9  8  2  0
  9  4  1  0
 10  8  1  0
 11  2  1  0
 12 11  1  0
 13 12  1  0
 14 13  1  0
 15 14  1  0
 16 14  1  0
 17 14  1  0
  3 18  1  0
  5 19  1  0
  6 20  1  0
  9 21  1  0
 12 22  1  0
 12 23  1  0
 13 24  1  0
 13 25  1  0
 15 26  1  0
 15 27  1  0
 15 28  1  0
 16 29  1  0
 16 30  1  0
 16 31  1  0
 17 32  1  0
 17 33  1  0
 17 34  1  0
M  CHG  1  14   1
M  END
>  <score>  (1) 
-6.66

$$$$
=
     RDKit          3D

 34 34  0  0  0  0  0  0  0  0999 V2000
    2.2120   68.6250   66.7440 O   0  0  0  0  0  0  0  0  0  0  0  0
    1.8750   67.4500   66.7230 C   0  0  0  0  0  0  0  0  0  0  0  0
    2.1010   66.5160   65.7570 N   0  0  0  0  0  0  0  0  0  0  0  0
    2.7770   66.6830   64.5320 C   0  0  0  0  0  0  0  0  0  0  0  0
    3.7820   65.7650   64.2210 C   0  0  0  0  0  0  0  0  0  0  0  0
    4.4670   65.9070   63.0240 C   0  0  0  0  0  0  0  0  0  0  0  0
    4.2170   66.8870   62.1360 N   0  0  0  0  0  0  0  0  0  0  0  0
    3.2400   67.7550   62.4600 C   0  0  0  0  0  0  0  0  0  0  0  0
    2.4970   67.7030   63.6270 C   0  0  0  0  0  0  0  0  0  0  0  0
    2.9600   68.9840   61.2980 Cl  0  0  0  0  0  0  0  0  0  0  0  0
    1.1950   66.8680   67.7520 O   0  0  0  0  0  0  0  0  0  0  0  0
   -0.0640   67.4940   68.0630 C   0  0  0  0  0  0  0  0  0  0  0  0
   -1.0820   67.3180   66.9190 C   0  0  0  0  0  0  0  0  0  0  0  0
   -1.4950   68.6290   66.2150 N   0  0  0  0  0  4  0  0  0  0  0  0
   -1.1510   69.8390   67.0870 C   0  0  0  0  0  0  0  0  0  0  0  0
   -3.0150   68.6040   66.0280 C   0  0  0  0  0  0  0  0  0  0  0  0
   -0.8420   68.7670   64.8490 C   0  0  0  0  0  0  0  0  0  0  0  0
    1.7327   65.5727   65.9452 H   0  0  0  0  0  0  0  0  0  0  0  0
    4.0256   64.9449   64.9124 H   0  0  0  0  0  0  0  0  0  0  0  0
    5.2574   65.1795   62.7873 H   0  0  0  0  0  0  0  0  0  0  0  0
    1.7105   68.4440   63.8326 H   0  0  0  0  0  0  0  0  0  0  0  0
   -0.4725   67.0396   68.9777 H   0  0  0  0  0  0  0  0  0  0  0  0
    0.1123   68.5705   68.2047 H   0  0  0  0  0  0  0  0  0  0  0  0
   -0.6390   66.6496   66.1660 H   0  0  0  0  0  0  0  0  0  0  0  0
   -1.9955   66.9099   67.3762 H   0  0  0  0  0  0  0  0  0  0  0  0
   -1.2302   69.5605   68.1482 H   0  0  0  0  0  0  0  0  0  0  0  0
   -0.1239   70.1674   66.8697 H   0  0  0  0  0  0  0  0  0  0  0  0
   -1.8517   70.6586   66.8697 H   0  0  0  0  0  0  0  0  0  0  0  0
   -3.5055   68.5959   67.0126 H   0  0  0  0  0  0  0  0  0  0  0  0
   -3.3303   69.4971   65.4686 H   0  0  0  0  0  0  0  0  0  0  0  0
   -3.3008   67.7010   65.4686 H   0  0  0  0  0  0  0  0  0  0  0  0
    0.2272   68.9929   64.9748 H   0  0  0  0  0  0  0  0  0  0  0  0
   -0.9546   67.8252   64.2919 H   0  0  0  0  0  0  0  0  0  0  0  0
   -1.3261   69.5827   64.2919 H   0  0  0  0  0  0  0  0  0  0  0  0
  2  1  2  0
  3  2  1  0
  4  3  1  0
  5  4  2  0
  6  5  1  0
  7  6  2  0
  8  7  1  0
  9  8  2  0
  9  4  1  0
 10  8  1  0
 11  2  1  0
 12 11  1  0
 13 12  1  0
 14 13  1  0
 15 14  1  0
 16 14  1  0
 17 14  1  0
  3 18  1  0
  5 19  1  0
  6 20  1  0
  9 21  1  0
 12 22  1  0
 12 23  1  0
 13 24  1  0
 13 25  1  0
 15 26  1  0
 15 27  1  0
 15 28  1  0
 16 29  1  0
 16 30  1  0
 16 31  1  0
 17 32  1  0
 17 33  1  0
 17 34  1  0
M  CHG  1  14   1
M  END
>  <score>  (2) 
-6.361

$$$$
=
     RDKit          3D

 34 34  0  0  0  0  0  0  0  0999 V2000
    1.4970   67.5170   69.4030 O   0  0  0  0  0  0  0  0  0  0  0  0
    0.6850   66.6030   69.4000 C   0  0  0  0  0  0  0  0  0  0  0  0
   -0.3560   66.3910   68.5470 N   0  0  0  0  0  0  0  0  0  0  0  0
   -0.7570   67.1860   67.4550 C   0  0  0  0  0  0  0  0  0  0  0  0
   -2.0970   67.5750   67.4010 C   0  0  0  0  0  0  0  0  0  0  0  0
   -2.5210   68.3540   66.3350 C   0  0  0  0  0  0  0  0  0  0  0  0
   -1.7100   68.7610   65.3410 N   0  0  0  0  0  0  0  0  0  0  0  0
   -0.4230   68.3740   65.4220 C   0  0  0  0  0  0  0  0  0  0  0  0
    0.1020   67.5970   66.4410 C   0  0  0  0  0  0  0  0  0  0  0  0
    0.5700   68.9160   64.1330 Cl  0  0  0  0  0  0  0  0  0  0  0  0
    0.7280   65.5850   70.3070 O   0  0  0  0  0  0  0  0  0  0  0  0
    1.9990   64.9130   70.3870 C   0  0  0  0  0  0  0  0  0  0  0  0
    1.8630   63.5190   71.0290 C   0  0  0  0  0  0  0  0  0  0  0  0
    2.9390   62.5000   70.5960 N   0  0  0  0  0  4  0  0  0  0  0  0
    2.6470   61.9770   69.1870 C   0  0  0  0  0  0  0  0  0  0  0  0
    2.8760   61.3100   71.5570 C   0  0  0  0  0  0  0  0  0  0  0  0
    4.3370   63.0940   70.6520 C   0  0  0  0  0  0  0  0  0  0  0  0
   -0.9187   65.5462   68.7218 H   0  0  0  0  0  0  0  0  0  0  0  0
   -2.8021   67.2697   68.1882 H   0  0  0  0  0  0  0  0  0  0  0  0
   -3.5782   68.6559   66.2999 H   0  0  0  0  0  0  0  0  0  0  0  0
    1.1649   67.3137   66.4483 H   0  0  0  0  0  0  0  0  0  0  0  0
    2.4080   64.8004   69.3721 H   0  0  0  0  0  0  0  0  0  0  0  0
    2.6694   65.5177   71.0154 H   0  0  0  0  0  0  0  0  0  0  0  0
    1.9235   63.6376   72.1209 H   0  0  0  0  0  0  0  0  0  0  0  0
    0.8982   63.1141   70.6896 H   0  0  0  0  0  0  0  0  0  0  0  0
    2.1118   61.0184   69.2553 H   0  0  0  0  0  0  0  0  0  0  0  0
    2.0255   62.7062   68.6467 H   0  0  0  0  0  0  0  0  0  0  0  0
    3.5939   61.8306   68.6467 H   0  0  0  0  0  0  0  0  0  0  0  0
    2.8953   61.6751   72.5945 H   0  0  0  0  0  0  0  0  0  0  0  0
    1.9468   60.7474   71.3835 H   0  0  0  0  0  0  0  0  0  0  0  0
    3.7406   60.6524   71.3835 H   0  0  0  0  0  0  0  0  0  0  0  0
    4.6391   63.2223   71.7019 H   0  0  0  0  0  0  0  0  0  0  0  0
    5.0430   62.4181   70.1473 H   0  0  0  0  0  0  0  0  0  0  0  0
    4.3406   64.0714   70.1473 H   0  0  0  0  0  0  0  0  0  0  0  0
  2  1  2  0
  3  2  1  0
  4  3  1  0
  5  4  2  0
  6  5  1  0
  7  6  2  0
  8  7  1  0
  9  8  2  0
  9  4  1  0
 10  8  1  0
 11  2  1  0
 12 11  1  0
 13 12  1  0
 14 13  1  0
 15 14  1  0
 16 14  1  0
 17 14  1  0
  3 18  1  0
  5 19  1  0
  6 20  1  0
  9 21  1  0
 12 22  1  0
 12 23  1  0
 13 24  1  0
 13 25  1  0
 15 26  1  0
 15 27  1  0
 15 28  1  0
 16 29  1  0
 16 30  1  0
 16 31  1  0
 17 32  1  0
 17 33  1  0
 17 34  1  0
M  CHG  1  14   1
M  END
>  <score>  (3) 
-6.111

$$$$
=
     RDKit          3D

 34 34  0  0  0  0  0  0  0  0999 V2000
    1.4480   67.0830   69.9290 O   0  0  0  0  0  0  0  0  0  0  0  0
    0.4930   66.3200   69.9140 C   0  0  0  0  0  0  0  0  0  0  0  0
   -0.5160   66.2360   69.0020 N   0  0  0  0  0  0  0  0  0  0  0  0
   -0.7100   67.0230   67.8490 C   0  0  0  0  0  0  0  0  0  0  0  0
    0.4170   67.3370   67.0870 C   0  0  0  0  0  0  0  0  0  0  0  0
    0.2570   68.1130   65.9500 C   0  0  0  0  0  0  0  0  0  0  0  0
   -0.9320   68.5860   65.5340 N   0  0  0  0  0  0  0  0  0  0  0  0
   -2.0010   68.2640   66.2850 C   0  0  0  0  0  0  0  0  0  0  0  0
   -1.9510   67.4970   67.4360 C   0  0  0  0  0  0  0  0  0  0  0  0
   -3.4930   68.8900   65.7140 Cl  0  0  0  0  0  0  0  0  0  0  0  0
    0.3070   65.3640   70.8690 O   0  0  0  0  0  0  0  0  0  0  0  0
    0.3830   64.0120   70.3800 C   0  0  0  0  0  0  0  0  0  0  0  0
    1.1700   63.1040   71.3450 C   0  0  0  0  0  0  0  0  0  0  0  0
    2.5530   62.6550   70.8250 N   0  0  0  0  0  4  0  0  0  0  0  0
    3.2180   61.7030   71.8230 C   0  0  0  0  0  0  0  0  0  0  0  0
    3.4380   63.8990   70.7060 C   0  0  0  0  0  0  0  0  0  0  0  0
    2.4570   61.9950   69.4590 C   0  0  0  0  0  0  0  0  0  0  0  0
   -1.2236   65.5082   69.1767 H   0  0  0  0  0  0  0  0  0  0  0  0
    1.4127   66.9754   67.3834 H   0  0  0  0  0  0  0  0  0  0  0  0
    1.1502   68.3553   65.3555 H   0  0  0  0  0  0  0  0  0  0  0  0
   -2.8637   67.2694   68.0062 H   0  0  0  0  0  0  0  0  0  0  0  0
   -0.6367   63.6150   70.2677 H   0  0  0  0  0  0  0  0  0  0  0  0
    0.9080   64.0243   69.4134 H   0  0  0  0  0  0  0  0  0  0  0  0
    1.3196   63.6527   72.2866 H   0  0  0  0  0  0  0  0  0  0  0  0
    0.5721   62.1889   71.4677 H   0  0  0  0  0  0  0  0  0  0  0  0
    2.9902   62.0292   72.8485 H   0  0  0  0  0  0  0  0  0  0  0  0
    2.8345   60.6836   71.6687 H   0  0  0  0  0  0  0  0  0  0  0  0
    4.3071   61.7123   71.6687 H   0  0  0  0  0  0  0  0  0  0  0  0
    3.6966   64.2625   71.7115 H   0  0  0  0  0  0  0  0  0  0  0  0
    4.3584   63.6434   70.1605 H   0  0  0  0  0  0  0  0  0  0  0  0
    2.8947   64.6847   70.1605 H   0  0  0  0  0  0  0  0  0  0  0  0
    2.2997   60.9136   69.5845 H   0  0  0  0  0  0  0  0  0  0  0  0
    1.6121   62.4262   68.9020 H   0  0  0  0  0  0  0  0  0  0  0  0
    3.3897   62.1676   68.9020 H   0  0  0  0  0  0  0  0  0  0  0  0
  2  1  2  0
  3  2  1  0
  4  3  1  0
  5  4  2  0
  6  5  1  0
  7  6  2  0
  8  7  1  0
  9  8  2  0
  9  4  1  0
 10  8  1  0
 11  2  1  0
 12 11  1  0
 13 12  1  0
 14 13  1  0
 15 14  1  0
 16 14  1  0
 17 14  1  0
  3 18  1  0
  5 19  1  0
  6 20  1  0
  9 21  1  0
 12 22  1  0
 12 23  1  0
 13 24  1  0
 13 25  1  0
 15 26  1  0
 15 27  1  0
 15 28  1  0
 16 29  1  0
 16 30  1  0
 16 31  1  0
 17 32  1  0
 17 33  1  0
 17 34  1  0
M  CHG  1  14   1
M  END
>  <score>  (4) 
-6.015

$$$$
=
     RDKit          3D

 34 34  0  0  0  0  0  0  0  0999 V2000
    0.0480   64.0570   69.9750 O   0  0  0  0  0  0  0  0  0  0  0  0
    0.9170   64.8680   70.2570 C   0  0  0  0  0  0  0  0  0  0  0  0
    2.2420   64.6510   70.4880 N   0  0  0  0  0  0  0  0  0  0  0  0
    2.9360   63.4240   70.4650 C   0  0  0  0  0  0  0  0  0  0  0  0
    3.1930   62.8530   69.2170 C   0  0  0  0  0  0  0  0  0  0  0  0
    3.8700   61.6440   69.1640 C   0  0  0  0  0  0  0  0  0  0  0  0
    4.2970   60.9830   70.2550 N   0  0  0  0  0  0  0  0  0  0  0  0
    4.0380   61.5580   71.4440 C   0  0  0  0  0  0  0  0  0  0  0  0
    3.3710   62.7610   71.6080 C   0  0  0  0  0  0  0  0  0  0  0  0
    4.6010   60.6780   72.8040 Cl  0  0  0  0  0  0  0  0  0  0  0  0
    0.6630   66.2040   70.3670 O   0  0  0  0  0  0  0  0  0  0  0  0
    1.0380   66.9780   69.2130 C   0  0  0  0  0  0  0  0  0  0  0  0
   -0.1580   67.1990   68.2660 C   0  0  0  0  0  0  0  0  0  0  0  0
    0.1020   68.2010   67.1200 N   0  0  0  0  0  4  0  0  0  0  0  0
    0.8020   69.4550   67.6510 C   0  0  0  0  0  0  0  0  0  0  0  0
   -1.2540   68.6290   66.5520 C   0  0  0  0  0  0  0  0  0  0  0  0
    0.9220   67.5810   66.0000 C   0  0  0  0  0  0  0  0  0  0  0  0
    2.8055   65.4852   70.7061 H   0  0  0  0  0  0  0  0  0  0  0  0
    2.8647   63.3526   68.2936 H   0  0  0  0  0  0  0  0  0  0  0  0
    4.0686   61.2016   68.1766 H   0  0  0  0  0  0  0  0  0  0  0  0
    3.1911   63.1785   72.6097 H   0  0  0  0  0  0  0  0  0  0  0  0
    1.4152   67.9561   69.5462 H   0  0  0  0  0  0  0  0  0  0  0  0
    1.8141   66.4243   68.6643 H   0  0  0  0  0  0  0  0  0  0  0  0
   -0.4250   66.2298   67.8195 H   0  0  0  0  0  0  0  0  0  0  0  0
   -0.9634   67.6303   68.8786 H   0  0  0  0  0  0  0  0  0  0  0  0
    0.7943   69.4412   68.7509 H   0  0  0  0  0  0  0  0  0  0  0  0
    1.8415   69.4745   67.2918 H   0  0  0  0  0  0  0  0  0  0  0  0
    0.2730   70.3501   67.2918 H   0  0  0  0  0  0  0  0  0  0  0  0
   -1.9456   68.8473   67.3791 H   0  0  0  0  0  0  0  0  0  0  0  0
   -1.1249   69.5301   65.9344 H   0  0  0  0  0  0  0  0  0  0  0  0
   -1.6656   67.8171   65.9344 H   0  0  0  0  0  0  0  0  0  0  0  0
    1.7292   66.9707   66.4312 H   0  0  0  0  0  0  0  0  0  0  0  0
    0.2734   66.9454   65.3792 H   0  0  0  0  0  0  0  0  0  0  0  0
    1.3567   68.3783   65.3792 H   0  0  0  0  0  0  0  0  0  0  0  0
  2  1  2  0
  3  2  1  0
  4  3  1  0
  5  4  2  0
  6  5  1  0
  7  6  2  0
  8  7  1  0
  9  8  2  0
  9  4  1  0
 10  8  1  0
 11  2  1  0
 12 11  1  0
 13 12  1  0
 14 13  1  0
 15 14  1  0
 16 14  1  0
 17 14  1  0
  3 18  1  0
  5 19  1  0
  6 20  1  0
  9 21  1  0
 12 22  1  0
 12 23  1  0
 13 24  1  0
 13 25  1  0
 15 26  1  0
 15 27  1  0
 15 28  1  0
 16 29  1  0
 16 30  1  0
 16 31  1  0
 17 32  1  0
 17 33  1  0
 17 34  1  0
M  CHG  1  14   1
M  END
>  <score>  (5) 
-5.915

$$$$
=
     RDKit          3D

 34 34  0  0  0  0  0  0  0  0999 V2000
    1.7360   65.9820   70.2510 O   0  0  0  0  0  0  0  0  0  0  0  0
    0.6900   65.4450   69.9180 C   0  0  0  0  0  0  0  0  0  0  0  0
    0.3420   64.1310   70.0060 N   0  0  0  0  0  0  0  0  0  0  0  0
    1.1150   63.0600   70.4990 C   0  0  0  0  0  0  0  0  0  0  0  0
    0.7170   62.4800   71.7050 C   0  0  0  0  0  0  0  0  0  0  0  0
    1.4620   61.4290   72.2160 C   0  0  0  0  0  0  0  0  0  0  0  0
    2.5570   60.9300   71.6120 N   0  0  0  0  0  0  0  0  0  0  0  0
    2.9150   61.5060   70.4500 C   0  0  0  0  0  0  0  0  0  0  0  0
    2.2420   62.5590   69.8530 C   0  0  0  0  0  0  0  0  0  0  0  0
    4.3140   60.8360   69.7190 Cl  0  0  0  0  0  0  0  0  0  0  0  0
   -0.3570   66.1450   69.3940 O   0  0  0  0  0  0  0  0  0  0  0  0
    0.0240   67.1800   68.4690 C   0  0  0  0  0  0  0  0  0  0  0  0
   -0.8620   67.1690   67.2090 C   0  0  0  0  0  0  0  0  0  0  0  0
   -0.8790   68.4950   66.4180 N   0  0  0  0  0  4  0  0  0  0  0  0
    0.1770   68.4740   65.3100 C   0  0  0  0  0  0  0  0  0  0  0  0
   -0.5160   69.6250   67.3860 C   0  0  0  0  0  0  0  0  0  0  0  0
   -2.2490   68.7850   65.8270 C   0  0  0  0  0  0  0  0  0  0  0  0
   -0.6019   63.8903   69.6712 H   0  0  0  0  0  0  0  0  0  0  0  0
   -0.1706   62.8500   72.2392 H   0  0  0  0  0  0  0  0  0  0  0  0
    1.1413   60.9780   73.1667 H   0  0  0  0  0  0  0  0  0  0  0  0
    2.5867   62.9856   68.8995 H   0  0  0  0  0  0  0  0  0  0  0  0
   -0.0741   68.1565   68.9658 H   0  0  0  0  0  0  0  0  0  0  0  0
    1.0640   66.9991   68.1597 H   0  0  0  0  0  0  0  0  0  0  0  0
   -0.4959   66.3762   66.5401 H   0  0  0  0  0  0  0  0  0  0  0  0
   -1.8923   67.0023   67.5563 H   0  0  0  0  0  0  0  0  0  0  0  0
    1.1805   68.4540   65.7602 H   0  0  0  0  0  0  0  0  0  0  0  0
    0.0368   67.5785   64.6868 H   0  0  0  0  0  0  0  0  0  0  0  0
    0.0725   69.3744   64.6868 H   0  0  0  0  0  0  0  0  0  0  0  0
   -0.6296   69.2715   68.4214 H   0  0  0  0  0  0  0  0  0  0  0  0
    0.5262   69.9329   67.2159 H   0  0  0  0  0  0  0  0  0  0  0  0
   -1.1840   70.4823   67.2159 H   0  0  0  0  0  0  0  0  0  0  0  0
   -2.9740   68.9385   66.6399 H   0  0  0  0  0  0  0  0  0  0  0  0
   -2.1962   69.6919   65.2067 H   0  0  0  0  0  0  0  0  0  0  0  0
   -2.5682   67.9345   65.2067 H   0  0  0  0  0  0  0  0  0  0  0  0
  2  1  2  0
  3  2  1  0
  4  3  1  0
  5  4  2  0
  6  5  1  0
  7  6  2  0
  8  7  1  0
  9  8  2  0
  9  4  1  0
 10  8  1  0
 11  2  1  0
 12 11  1  0
 13 12  1  0
 14 13  1  0
 15 14  1  0
 16 14  1  0
 17 14  1  0
  3 18  1  0
  5 19  1  0
  6 20  1  0
  9 21  1  0
 12 22  1  0
 12 23  1  0
 13 24  1  0
 13 25  1  0
 15 26  1  0
 15 27  1  0
 15 28  1  0
 16 29  1  0
 16 30  1  0
 16 31  1  0
 17 32  1  0
 17 33  1  0
 17 34  1  0
M  CHG  1  14   1
M  END
>  <score>  (6) 
-5.905

$$$$
=
     RDKit          3D

 34 34  0  0  0  0  0  0  0  0999 V2000
    2.2690   64.1190   69.7410 O   0  0  0  0  0  0  0  0  0  0  0  0
    1.4700   64.5050   70.5820 C   0  0  0  0  0  0  0  0  0  0  0  0
    0.6170   65.5660   70.5230 N   0  0  0  0  0  0  0  0  0  0  0  0
    0.4530   66.4890   69.4700 C   0  0  0  0  0  0  0  0  0  0  0  0
   -0.7440   66.4440   68.7550 C   0  0  0  0  0  0  0  0  0  0  0  0
   -0.9310   67.3370   67.7110 C   0  0  0  0  0  0  0  0  0  0  0  0
   -0.0160   68.2540   67.3450 N   0  0  0  0  0  0  0  0  0  0  0  0
    1.1270   68.2770   68.0550 C   0  0  0  0  0  0  0  0  0  0  0  0
    1.4130   67.4310   69.1130 C   0  0  0  0  0  0  0  0  0  0  0  0
    2.2600   69.4620   67.5500 Cl  0  0  0  0  0  0  0  0  0  0  0  0
    1.2980   63.8650   71.7740 O   0  0  0  0  0  0  0  0  0  0  0  0
    1.5690   62.4520   71.7350 C   0  0  0  0  0  0  0  0  0  0  0  0
    2.8520   62.0990   72.5130 C   0  0  0  0  0  0  0  0  0  0  0  0
    3.8400   61.1890   71.7520 N   0  0  0  0  0  4  0  0  0  0  0  0
    5.1180   61.9560   71.4030 C   0  0  0  0  0  0  0  0  0  0  0  0
    3.1760   60.7660   70.4390 C   0  0  0  0  0  0  0  0  0  0  0  0
    4.1830   59.9380   72.5460 C   0  0  0  0  0  0  0  0  0  0  0  0
    0.0188   65.7115   71.3488 H   0  0  0  0  0  0  0  0  0  0  0  0
   -1.5247   65.7139   69.0146 H   0  0  0  0  0  0  0  0  0  0  0  0
   -1.8774   67.2939   67.1521 H   0  0  0  0  0  0  0  0  0  0  0  0
    2.3682   67.5012   69.6539 H   0  0  0  0  0  0  0  0  0  0  0  0
    0.7206   61.9133   72.1822 H   0  0  0  0  0  0  0  0  0  0  0  0
    1.7114   62.1577   70.6847 H   0  0  0  0  0  0  0  0  0  0  0  0
    3.3713   63.0366   72.7604 H   0  0  0  0  0  0  0  0  0  0  0  0
    2.5308   61.5340   73.4005 H   0  0  0  0  0  0  0  0  0  0  0  0
    5.6268   62.2614   72.3292 H   0  0  0  0  0  0  0  0  0  0  0  0
    5.7849   61.3088   70.8145 H   0  0  0  0  0  0  0  0  0  0  0  0
    4.8606   62.8490   70.8145 H   0  0  0  0  0  0  0  0  0  0  0  0
    2.2668   60.1868   70.6579 H   0  0  0  0  0  0  0  0  0  0  0  0
    2.9095   61.6611   69.8579 H   0  0  0  0  0  0  0  0  0  0  0  0
    3.8746   60.1461   69.8579 H   0  0  0  0  0  0  0  0  0  0  0  0
    4.1225   60.1586   73.6220 H   0  0  0  0  0  0  0  0  0  0  0  0
    3.4711   59.1378   72.2952 H   0  0  0  0  0  0  0  0  0  0  0  0
    5.2035   59.6128   72.2952 H   0  0  0  0  0  0  0  0  0  0  0  0
  2  1  2  0
  3  2  1  0
  4  3  1  0
  5  4  2  0
  6  5  1  0
  7  6  2  0
  8  7  1  0
  9  8  2  0
  9  4  1  0
 10  8  1  0
 11  2  1  0
 12 11  1  0
 13 12  1  0
 14 13  1  0
 15 14  1  0
 16 14  1  0
 17 14  1  0
  3 18  1  0
  5 19  1  0
  6 20  1  0
  9 21  1  0
 12 22  1  0
 12 23  1  0
 13 24  1  0
 13 25  1  0
 15 26  1  0
 15 27  1  0
 15 28  1  0
 16 29  1  0
 16 30  1  0
 16 31  1  0
 17 32  1  0
 17 33  1  0
 17 34  1  0
M  CHG  1  14   1
M  END
>  <score>  (7) 
-5.893

$$$$
=
     RDKit          3D

 34 34  0  0  0  0  0  0  0  0999 V2000
    1.9160   70.3170   68.0210 O   0  0  0  0  0  0  0  0  0  0  0  0
    2.3150   69.3200   67.4370 C   0  0  0  0  0  0  0  0  0  0  0  0
    1.6010   68.2400   67.0120 N   0  0  0  0  0  0  0  0  0  0  0  0
    0.2180   68.0050   67.1520 C   0  0  0  0  0  0  0  0  0  0  0  0
   -0.1860   67.1210   68.1530 C   0  0  0  0  0  0  0  0  0  0  0  0
   -1.5400   66.8680   68.3110 C   0  0  0  0  0  0  0  0  0  0  0  0
   -2.4960   67.4290   67.5470 N   0  0  0  0  0  0  0  0  0  0  0  0
   -2.0770   68.2790   66.5920 C   0  0  0  0  0  0  0  0  0  0  0  0
   -0.7510   68.6010   66.3510 C   0  0  0  0  0  0  0  0  0  0  0  0
   -3.3300   68.9680   65.6460 Cl  0  0  0  0  0  0  0  0  0  0  0  0
    3.6220   69.1510   67.0880 O   0  0  0  0  0  0  0  0  0  0  0  0
    3.9250   69.5080   65.7260 C   0  0  0  0  0  0  0  0  0  0  0  0
    3.2320   68.5630   64.7250 C   0  0  0  0  0  0  0  0  0  0  0  0
    4.0060   68.3360   63.4090 N   0  0  0  0  0  4  0  0  0  0  0  0
    4.5960   66.9240   63.3690 C   0  0  0  0  0  0  0  0  0  0  0  0
    5.1710   69.3300   63.3690 C   0  0  0  0  0  0  0  0  0  0  0  0
    3.1290   68.5700   62.1890 C   0  0  0  0  0  0  0  0  0  0  0  0
    2.1376   67.5052   66.5292 H   0  0  0  0  0  0  0  0  0  0  0  0
    0.5552   66.6343   68.8040 H   0  0  0  0  0  0  0  0  0  0  0  0
   -1.8499   66.1711   69.1036 H   0  0  0  0  0  0  0  0  0  0  0  0
   -0.4735   69.3048   65.5525 H   0  0  0  0  0  0  0  0  0  0  0  0
    3.5822   70.5369   65.5418 H   0  0  0  0  0  0  0  0  0  0  0  0
    5.0124   69.4248   65.5819 H   0  0  0  0  0  0  0  0  0  0  0  0
    3.0944   67.5873   65.2140 H   0  0  0  0  0  0  0  0  0  0  0  0
    2.2835   69.0462   64.4477 H   0  0  0  0  0  0  0  0  0  0  0  0
    4.7478   66.5608   64.3962 H   0  0  0  0  0  0  0  0  0  0  0  0
    3.9034   66.2520   62.8411 H   0  0  0  0  0  0  0  0  0  0  0  0
    5.5608   66.9446   62.8411 H   0  0  0  0  0  0  0  0  0  0  0  0
    5.4704   69.5855   64.3962 H   0  0  0  0  0  0  0  0  0  0  0  0
    6.0225   68.8759   62.8411 H   0  0  0  0  0  0  0  0  0  0  0  0
    4.8566   70.2424   62.8411 H   0  0  0  0  0  0  0  0  0  0  0  0
    2.1136   68.8409   62.5139 H   0  0  0  0  0  0  0  0  0  0  0  0
    3.5510   69.3870   61.5853 H   0  0  0  0  0  0  0  0  0  0  0  0
    3.0880   67.6514   61.5853 H   0  0  0  0  0  0  0  0  0  0  0  0
  2  1  2  0
  3  2  1  0
  4  3  1  0
  5  4  2  0
  6  5  1  0
  7  6  2  0
  8  7  1  0
  9  8  2  0
  9  4  1  0
 10  8  1  0
 11  2  1  0
 12 11  1  0
 13 12  1  0
 14 13  1  0
 15 14  1  0
 16 14  1  0
 17 14  1  0
  3 18  1  0
  5 19  1  0
  6 20  1  0
  9 21  1  0
 12 22  1  0
 12 23  1  0
 13 24  1  0
 13 25  1  0
 15 26  1  0
 15 27  1  0
 15 28  1  0
 16 29  1  0
 16 30  1  0
 16 31  1  0
 17 32  1  0
 17 33  1  0
 17 34  1  0
M  CHG  1  14   1
M  END
>  <score>  (8) 
-5.862

$$$$
=
     RDKit          3D

 34 34  0  0  0  0  0  0  0  0999 V2000
    4.8640   60.4290   72.9050 O   0  0  0  0  0  0  0  0  0  0  0  0
    3.8800   59.7970   72.5510 C   0  0  0  0  0  0  0  0  0  0  0  0
    2.9690   60.1080   71.5860 N   0  0  0  0  0  0  0  0  0  0  0  0
    2.9380   61.2500   70.7600 C   0  0  0  0  0  0  0  0  0  0  0  0
    3.6120   61.1800   69.5400 C   0  0  0  0  0  0  0  0  0  0  0  0
    3.6010   62.2890   68.7090 C   0  0  0  0  0  0  0  0  0  0  0  0
    2.9740   63.4400   69.0130 N   0  0  0  0  0  0  0  0  0  0  0  0
    2.3290   63.4770   70.1940 C   0  0  0  0  0  0  0  0  0  0  0  0
    2.2780   62.4280   71.0960 C   0  0  0  0  0  0  0  0  0  0  0  0
    1.5450   64.9640   70.5360 Cl  0  0  0  0  0  0  0  0  0  0  0  0
    3.5470   58.5940   73.1020 O   0  0  0  0  0  0  0  0  0  0  0  0
    2.1340   58.4020   73.3020 C   0  0  0  0  0  0  0  0  0  0  0  0
    1.6900   56.9880   72.8800 C   0  0  0  0  0  0  0  0  0  0  0  0
    1.1330   56.1170   74.0270 N   0  0  0  0  0  4  0  0  0  0  0  0
    1.8450   54.7620   74.0670 C   0  0  0  0  0  0  0  0  0  0  0  0
   -0.3500   55.8560   73.7430 C   0  0  0  0  0  0  0  0  0  0  0  0
    1.2540   56.8100   75.3740 C   0  0  0  0  0  0  0  0  0  0  0  0
    2.2109   59.4255   71.4428 H   0  0  0  0  0  0  0  0  0  0  0  0
    4.1416   60.2625   69.2438 H   0  0  0  0  0  0  0  0  0  0  0  0
    4.1338   62.2248   67.7488 H   0  0  0  0  0  0  0  0  0  0  0  0
    1.7336   62.5227   72.0471 H   0  0  0  0  0  0  0  0  0  0  0  0
    1.9011   58.5466   74.3673 H   0  0  0  0  0  0  0  0  0  0  0  0
    1.5954   59.1324   72.6803 H   0  0  0  0  0  0  0  0  0  0  0  0
    0.9061   57.0891   72.1149 H   0  0  0  0  0  0  0  0  0  0  0  0
    2.5914   56.4766   72.5113 H   0  0  0  0  0  0  0  0  0  0  0  0
    2.0029   54.4615   75.1133 H   0  0  0  0  0  0  0  0  0  0  0  0
    1.2267   54.0078   73.5582 H   0  0  0  0  0  0  0  0  0  0  0  0
    2.8169   54.8433   73.5582 H   0  0  0  0  0  0  0  0  0  0  0  0
   -0.8942   55.7602   74.6942 H   0  0  0  0  0  0  0  0  0  0  0  0
   -0.7659   56.6948   73.1655 H   0  0  0  0  0  0  0  0  0  0  0  0
   -0.4545   54.9257   73.1655 H   0  0  0  0  0  0  0  0  0  0  0  0
    1.1251   56.0716   76.1791 H   0  0  0  0  0  0  0  0  0  0  0  0
    2.2470   57.2755   75.4590 H   0  0  0  0  0  0  0  0  0  0  0  0
    0.4775   57.5845   75.4590 H   0  0  0  0  0  0  0  0  0  0  0  0
  2  1  2  0
  3  2  1  0
  4  3  1  0
  5  4  2  0
  6  5  1  0
  7  6  2  0
  8  7  1  0
  9  8  2  0
  9  4  1  0
 10  8  1  0
 11  2  1  0
 12 11  1  0
 13 12  1  0
 14 13  1  0
 15 14  1  0
 16 14  1  0
 17 14  1  0
  3 18  1  0
  5 19  1  0
  6 20  1  0
  9 21  1  0
 12 22  1  0
 12 23  1  0
 13 24  1  0
 13 25  1  0
 15 26  1  0
 15 27  1  0
 15 28  1  0
 16 29  1  0
 16 30  1  0
 16 31  1  0
 17 32  1  0
 17 33  1  0
 17 34  1  0
M  CHG  1  14   1
M  END
>  <score>  (9) 
-5.429

$$$$
