=
     RDKit          3D

 35 36  0  0  0  0  0  0  0  0999 V2000
    2.4150   68.7070   63.2080 C   0  0  0  0  0  0  0  0  0  0  0  0
    1.5390   69.0660   62.1630 C   0  0  0  0  0  0  0  0  0  0  0  0
    0.1850   69.2820   62.4050 C   0  0  0  0  0  0  0  0  0  0  0  0
   -0.3100   69.1560   63.6960 C   0  0  0  0  0  0  0  0  0  0  0  0
    0.5470   68.7880   64.7370 C   0  0  0  0  0  0  0  0  0  0  0  0
    1.9090   68.5110   64.5110 C   0  0  0  0  0  0  0  0  0  0  0  0
    2.7700   68.1980   65.5970 N   0  0  0  0  0  0  0  0  0  0  0  0
    3.1700   69.0970   66.6300 C   0  0  0  0  0  0  0  0  0  0  0  0
    2.3440   69.3860   67.7360 C   0  0  0  0  0  0  0  0  0  0  0  0
    0.7380   68.7590   67.8790 Cl  0  0  0  0  0  0  0  0  0  0  0  0
    2.7940   70.2200   68.7690 C   0  0  0  0  0  0  0  0  0  0  0  0
    4.0720   70.7710   68.7260 C   0  0  0  0  0  0  0  0  0  0  0  0
    4.9070   70.4870   67.6480 C   0  0  0  0  0  0  0  0  0  0  0  0
    4.4640   69.6540   66.6130 C   0  0  0  0  0  0  0  0  0  0  0  0
    5.5630   69.3590   65.3050 Cl  0  0  0  0  0  0  0  0  0  0  0  0
    3.8830   68.5360   62.8800 C   0  0  0  0  0  0  0  0  0  0  0  0
    4.2690   67.1150   62.5440 C   0  0  0  0  0  0  0  0  0  0  0  0
    4.3240   66.6280   61.4210 O   0  0  0  0  0  0  0  0  0  0  0  0
    4.6180   66.4650   63.6950 O   0  0  0  0  0  0  0  0  0  0  0  0
    4.3210   65.0510   63.6630 C   0  0  0  0  0  0  0  0  0  0  0  0
    3.7040   63.7990   65.6110 O   0  0  0  0  0  1  0  0  0  0  0  0
    3.3210   64.6840   64.7850 C   0  0  0  0  0  0  0  0  0  0  0  0
    2.2180   65.3020   64.7360 O   0  0  0  0  0  0  0  0  0  0  0  0
    1.9312   69.1771   61.1413 H   0  0  0  0  0  0  0  0  0  0  0  0
   -0.4887   69.5509   61.5781 H   0  0  0  0  0  0  0  0  0  0  0  0
   -1.3744   69.3454   63.8991 H   0  0  0  0  0  0  0  0  0  0  0  0
    0.1473   68.7128   65.7590 H   0  0  0  0  0  0  0  0  0  0  0  0
    3.1379   67.2370   65.6425 H   0  0  0  0  0  0  0  0  0  0  0  0
    2.1326   70.4408   69.6198 H   0  0  0  0  0  0  0  0  0  0  0  0
    4.4199   71.4263   69.5381 H   0  0  0  0  0  0  0  0  0  0  0  0
    5.9181   70.9185   67.6094 H   0  0  0  0  0  0  0  0  0  0  0  0
    4.1225   69.1742   62.0167 H   0  0  0  0  0  0  0  0  0  0  0  0
    4.4483   68.8181   63.7804 H   0  0  0  0  0  0  0  0  0  0  0  0
    3.8813   64.7951   62.6877 H   0  0  0  0  0  0  0  0  0  0  0  0
    5.2529   64.4873   63.8174 H   0  0  0  0  0  0  0  0  0  0  0  0
  2  1  2  0
  3  2  1  0
  4  3  2  0
  5  4  1  0
  6  5  2  0
  6  1  1  0
  7  6  1  0
  8  7  1  0
  9  8  2  0
 10  9  1  0
 11  9  1  0
 12 11  2  0
 13 12  1  0
 14 13  2  0
 14  8  1  0
 15 14  1  0
 16  1  1  0
 17 16  1  0
 18 17  2  0
 19 17  1  0
 20 19  1  0
 22 20  1  0
 22 21  1  0
 23 22  2  0
  2 24  1  0
  3 25  1  0
  4 26  1  0
  5 27  1  0
  7 28  1  0
 11 29  1  0
 12 30  1  0
 13 31  1  0
 16 32  1  0
 16 33  1  0
 20 34  1  0
 20 35  1  0
M  CHG  1  21  -1
M  END
>  <score>  (1) 
-9.323

$$$$
=
     RDKit          3D

 35 36  0  0  0  0  0  0  0  0999 V2000
    4.0980   68.9390   64.6790 C   0  0  0  0  0  0  0  0  0  0  0  0
    5.2220   69.7530   64.9240 C   0  0  0  0  0  0  0  0  0  0  0  0
    5.4790   70.2570   66.1960 C   0  0  0  0  0  0  0  0  0  0  0  0
    4.6240   69.9430   67.2440 C   0  0  0  0  0  0  0  0  0  0  0  0
    3.5000   69.1480   67.0100 C   0  0  0  0  0  0  0  0  0  0  0  0
    3.1860   68.6700   65.7230 C   0  0  0  0  0  0  0  0  0  0  0  0
    2.0710   67.8130   65.5250 N   0  0  0  0  0  0  0  0  0  0  0  0
    0.7060   68.1480   65.7750 C   0  0  0  0  0  0  0  0  0  0  0  0
   -0.1260   68.7030   64.7810 C   0  0  0  0  0  0  0  0  0  0  0  0
    0.4660   69.1210   63.2090 Cl  0  0  0  0  0  0  0  0  0  0  0  0
   -1.4800   68.9570   65.0370 C   0  0  0  0  0  0  0  0  0  0  0  0
   -2.0320   68.6560   66.2800 C   0  0  0  0  0  0  0  0  0  0  0  0
   -1.2290   68.0960   67.2710 C   0  0  0  0  0  0  0  0  0  0  0  0
    0.1250   67.8380   67.0200 C   0  0  0  0  0  0  0  0  0  0  0  0
    1.0540   67.1480   68.3110 Cl  0  0  0  0  0  0  0  0  0  0  0  0
    3.9070   68.3860   63.2820 C   0  0  0  0  0  0  0  0  0  0  0  0
    4.7240   67.1480   63.0020 C   0  0  0  0  0  0  0  0  0  0  0  0
    5.2880   66.8770   61.9490 O   0  0  0  0  0  0  0  0  0  0  0  0
    4.7960   66.3960   64.1410 O   0  0  0  0  0  0  0  0  0  0  0  0
    4.5180   64.9960   63.9180 C   0  0  0  0  0  0  0  0  0  0  0  0
    3.6770   63.6050   65.6800 O   0  0  0  0  0  1  0  0  0  0  0  0
    3.3780   64.5170   64.8490 C   0  0  0  0  0  0  0  0  0  0  0  0
    2.2630   65.0830   64.6560 O   0  0  0  0  0  0  0  0  0  0  0  0
    5.9068   69.9938   64.0975 H   0  0  0  0  0  0  0  0  0  0  0  0
    6.3543   70.9002   66.3698 H   0  0  0  0  0  0  0  0  0  0  0  0
    4.8316   70.3197   68.2564 H   0  0  0  0  0  0  0  0  0  0  0  0
    2.8427   68.8883   67.8529 H   0  0  0  0  0  0  0  0  0  0  0  0
    2.2643   66.8658   65.1695 H   0  0  0  0  0  0  0  0  0  0  0  0
   -2.1113   69.3971   64.2510 H   0  0  0  0  0  0  0  0  0  0  0  0
   -3.0948   68.8591   66.4777 H   0  0  0  0  0  0  0  0  0  0  0  0
   -1.6596   67.8555   68.2542 H   0  0  0  0  0  0  0  0  0  0  0  0
    2.8437   68.1376   63.1493 H   0  0  0  0  0  0  0  0  0  0  0  0
    4.2479   69.1614   62.5802 H   0  0  0  0  0  0  0  0  0  0  0  0
    4.2164   64.8488   62.8704 H   0  0  0  0  0  0  0  0  0  0  0  0
    5.4251   64.4131   64.1358 H   0  0  0  0  0  0  0  0  0  0  0  0
  2  1  2  0
  3  2  1  0
  4  3  2  0
  5  4  1  0
  6  5  2  0
  6  1  1  0
  7  6  1  0
  8  7  1  0
  9  8  2  0
 10  9  1  0
 11  9  1  0
 12 11  2  0
 13 12  1  0
 14 13  2  0
 14  8  1  0
 15 14  1  0
 16  1  1  0
 17 16  1  0
 18 17  2  0
 19 17  1  0
 20 19  1  0
 22 20  1  0
 22 21  1  0
 23 22  2  0
  2 24  1  0
  3 25  1  0
  4 26  1  0
  5 27  1  0
  7 28  1  0
 11 29  1  0
 12 30  1  0
 13 31  1  0
 16 32  1  0
 16 33  1  0
 20 34  1  0
 20 35  1  0
M  CHG  1  21  -1
M  END
>  <score>  (2) 
-9.188

$$$$
=
     RDKit          3D

 35 36  0  0  0  0  0  0  0  0999 V2000
    3.9410   67.2500   63.3490 C   0  0  0  0  0  0  0  0  0  0  0  0
    4.3650   65.9870   62.8860 C   0  0  0  0  0  0  0  0  0  0  0  0
    4.1190   64.8330   63.6250 C   0  0  0  0  0  0  0  0  0  0  0  0
    3.4340   64.9230   64.8300 C   0  0  0  0  0  0  0  0  0  0  0  0
    3.0210   66.1710   65.3040 C   0  0  0  0  0  0  0  0  0  0  0  0
    3.3040   67.3590   64.6030 C   0  0  0  0  0  0  0  0  0  0  0  0
    2.8190   68.6070   65.0780 N   0  0  0  0  0  0  0  0  0  0  0  0
    3.1490   69.2110   66.3280 C   0  0  0  0  0  0  0  0  0  0  0  0
    2.2550   69.2160   67.4190 C   0  0  0  0  0  0  0  0  0  0  0  0
    0.6470   68.5850   67.3000 Cl  0  0  0  0  0  0  0  0  0  0  0  0
    2.6340   69.7570   68.6550 C   0  0  0  0  0  0  0  0  0  0  0  0
    3.9080   70.2900   68.8310 C   0  0  0  0  0  0  0  0  0  0  0  0
    4.8090   70.2830   67.7690 C   0  0  0  0  0  0  0  0  0  0  0  0
    4.4370   69.7430   66.5320 C   0  0  0  0  0  0  0  0  0  0  0  0
    5.6150   69.7820   65.2610 Cl  0  0  0  0  0  0  0  0  0  0  0  0
    4.1990   68.4550   62.4690 C   0  0  0  0  0  0  0  0  0  0  0  0
    3.1030   68.7210   61.4640 C   0  0  0  0  0  0  0  0  0  0  0  0
    3.2510   69.1770   60.3380 O   0  0  0  0  0  0  0  0  0  0  0  0
    1.9110   68.3040   61.9880 O   0  0  0  0  0  0  0  0  0  0  0  0
    0.8980   69.3350   61.9890 C   0  0  0  0  0  0  0  0  0  0  0  0
    0.0520   68.2540   63.9530 O   0  0  0  0  0  1  0  0  0  0  0  0
   -0.2620   68.9510   62.9380 C   0  0  0  0  0  0  0  0  0  0  0  0
   -1.4020   69.3620   62.5770 O   0  0  0  0  0  0  0  0  0  0  0  0
    4.8980   65.9126   61.9267 H   0  0  0  0  0  0  0  0  0  0  0  0
    4.4650   63.8559   63.2568 H   0  0  0  0  0  0  0  0  0  0  0  0
    3.2171   64.0138   65.4099 H   0  0  0  0  0  0  0  0  0  0  0  0
    2.4605   66.2268   66.2489 H   0  0  0  0  0  0  0  0  0  0  0  0
    2.1710   69.1221   64.4651 H   0  0  0  0  0  0  0  0  0  0  0  0
    1.9200   69.7605   69.4918 H   0  0  0  0  0  0  0  0  0  0  0  0
    4.2012   70.7140   69.8027 H   0  0  0  0  0  0  0  0  0  0  0  0
    5.8167   70.7033   67.9026 H   0  0  0  0  0  0  0  0  0  0  0  0
    4.3006   69.3403   63.1140 H   0  0  0  0  0  0  0  0  0  0  0  0
    5.1145   68.2441   61.8968 H   0  0  0  0  0  0  0  0  0  0  0  0
    1.3447   70.2816   62.3273 H   0  0  0  0  0  0  0  0  0  0  0  0
    0.5020   69.4469   60.9689 H   0  0  0  0  0  0  0  0  0  0  0  0
  2  1  2  0
  3  2  1  0
  4  3  2  0
  5  4  1  0
  6  5  2  0
  6  1  1  0
  7  6  1  0
  8  7  1  0
  9  8  2  0
 10  9  1  0
 11  9  1  0
 12 11  2  0
 13 12  1  0
 14 13  2  0
 14  8  1  0
 15 14  1  0
 16  1  1  0
 17 16  1  0
 18 17  2  0
 19 17  1  0
 20 19  1  0
 22 20  1  0
 22 21  1  0
 23 22  2  0
  2 24  1  0
  3 25  1  0
  4 26  1  0
  5 27  1  0
  7 28  1  0
 11 29  1  0
 12 30  1  0
 13 31  1  0
 16 32  1  0
 16 33  1  0
 20 34  1  0
 20 35  1  0
M  CHG  1  21  -1
M  END
>  <score>  (3) 
-9.13

$$$$
=
     RDKit          3D

 35 36  0  0  0  0  0  0  0  0999 V2000
    1.9200   68.8200   63.6030 C   0  0  0  0  0  0  0  0  0  0  0  0
    0.8380   69.1710   62.7710 C   0  0  0  0  0  0  0  0  0  0  0  0
   -0.4670   69.1770   63.2550 C   0  0  0  0  0  0  0  0  0  0  0  0
   -0.7070   68.8450   64.5820 C   0  0  0  0  0  0  0  0  0  0  0  0
    0.3560   68.4840   65.4120 C   0  0  0  0  0  0  0  0  0  0  0  0
    1.6790   68.4170   64.9340 C   0  0  0  0  0  0  0  0  0  0  0  0
    2.7480   68.1050   65.8160 N   0  0  0  0  0  0  0  0  0  0  0  0
    3.3140   68.9850   66.7870 C   0  0  0  0  0  0  0  0  0  0  0  0
    4.5490   69.6350   66.5830 C   0  0  0  0  0  0  0  0  0  0  0  0
    5.5290   69.3400   65.1880 Cl  0  0  0  0  0  0  0  0  0  0  0  0
    5.0450   70.5460   67.5260 C   0  0  0  0  0  0  0  0  0  0  0  0
    4.3190   70.8340   68.6790 C   0  0  0  0  0  0  0  0  0  0  0  0
    3.0910   70.2100   68.8920 C   0  0  0  0  0  0  0  0  0  0  0  0
    2.5900   69.3000   67.9540 C   0  0  0  0  0  0  0  0  0  0  0  0
    1.0600   68.5640   68.3010 Cl  0  0  0  0  0  0  0  0  0  0  0  0
    3.3170   68.8830   63.0220 C   0  0  0  0  0  0  0  0  0  0  0  0
    3.4190   68.3250   61.6220 C   0  0  0  0  0  0  0  0  0  0  0  0
    3.2810   68.9560   60.5820 O   0  0  0  0  0  0  0  0  0  0  0  0
    3.7600   67.0030   61.6950 O   0  0  0  0  0  0  0  0  0  0  0  0
    4.6870   66.7120   62.7640 C   0  0  0  0  0  0  0  0  0  0  0  0
    3.2860   65.4620   64.2530 O   0  0  0  0  0  1  0  0  0  0  0  0
    4.2910   65.3990   63.4800 C   0  0  0  0  0  0  0  0  0  0  0  0
    5.0360   64.4090   63.2230 O   0  0  0  0  0  0  0  0  0  0  0  0
    1.0278   69.4445   61.7226 H   0  0  0  0  0  0  0  0  0  0  0  0
   -1.3026   69.4429   62.5909 H   0  0  0  0  0  0  0  0  0  0  0  0
   -1.7329   68.8664   64.9784 H   0  0  0  0  0  0  0  0  0  0  0  0
    0.1549   68.2457   66.4669 H   0  0  0  0  0  0  0  0  0  0  0  0
    3.1506   67.1593   65.7489 H   0  0  0  0  0  0  0  0  0  0  0  0
    6.0143   71.0367   67.3540 H   0  0  0  0  0  0  0  0  0  0  0  0
    4.7120   71.5491   69.4166 H   0  0  0  0  0  0  0  0  0  0  0  0
    2.5133   70.4336   69.8010 H   0  0  0  0  0  0  0  0  0  0  0  0
    3.6368   69.9353   63.0004 H   0  0  0  0  0  0  0  0  0  0  0  0
    3.9597   68.2616   63.6630 H   0  0  0  0  0  0  0  0  0  0  0  0
    5.6993   66.6061   62.3469 H   0  0  0  0  0  0  0  0  0  0  0  0
    4.6619   67.5364   63.4918 H   0  0  0  0  0  0  0  0  0  0  0  0
  2  1  2  0
  3  2  1  0
  4  3  2  0
  5  4  1  0
  6  5  2  0
  6  1  1  0
  7  6  1  0
  8  7  1  0
  9  8  2  0
 10  9  1  0
 11  9  1  0
 12 11  2  0
 13 12  1  0
 14 13  2  0
 14  8  1  0
 15 14  1  0
 16  1  1  0
 17 16  1  0
 18 17  2  0
 19 17  1  0
 20 19  1  0
 22 20  1  0
 22 21  1  0
 23 22  2  0
  2 24  1  0
  3 25  1  0
  4 26  1  0
  5 27  1  0
  7 28  1  0
 11 29  1  0
 12 30  1  0
 13 31  1  0
 16 32  1  0
 16 33  1  0
 20 34  1  0
 20 35  1  0
M  CHG  1  21  -1
M  END
>  <score>  (4) 
-8.878

$$$$
=
     RDKit          3D

 35 36  0  0  0  0  0  0  0  0999 V2000
    2.2890   69.1890   67.4450 C   0  0  0  0  0  0  0  0  0  0  0  0
    3.1070   69.9250   68.3260 C   0  0  0  0  0  0  0  0  0  0  0  0
    4.4050   70.2800   67.9710 C   0  0  0  0  0  0  0  0  0  0  0  0
    4.9000   69.9170   66.7260 C   0  0  0  0  0  0  0  0  0  0  0  0
    4.1020   69.1760   65.8500 C   0  0  0  0  0  0  0  0  0  0  0  0
    2.8050   68.7570   66.2040 C   0  0  0  0  0  0  0  0  0  0  0  0
    1.9940   68.0580   65.2710 N   0  0  0  0  0  0  0  0  0  0  0  0
    1.5530   68.5570   64.0090 C   0  0  0  0  0  0  0  0  0  0  0  0
    2.3940   68.5860   62.8770 C   0  0  0  0  0  0  0  0  0  0  0  0
    4.0580   68.1170   62.9490 Cl  0  0  0  0  0  0  0  0  0  0  0  0
    1.9100   69.0190   61.6350 C   0  0  0  0  0  0  0  0  0  0  0  0
    0.5830   69.4200   61.4940 C   0  0  0  0  0  0  0  0  0  0  0  0
   -0.2650   69.3870   62.5980 C   0  0  0  0  0  0  0  0  0  0  0  0
    0.2120   68.9540   63.8420 C   0  0  0  0  0  0  0  0  0  0  0  0
   -0.9080   68.9530   65.1650 Cl  0  0  0  0  0  0  0  0  0  0  0  0
    0.8710   68.8800   67.8780 C   0  0  0  0  0  0  0  0  0  0  0  0
    0.6160   67.4110   68.1220 C   0  0  0  0  0  0  0  0  0  0  0  0
    0.0080   66.6510   67.3800 O   0  0  0  0  0  0  0  0  0  0  0  0
    1.2370   67.0400   69.2820 O   0  0  0  0  0  0  0  0  0  0  0  0
    0.3670   66.3300   70.1920 C   0  0  0  0  0  0  0  0  0  0  0  0
    1.9770   64.5800   69.8960 O   0  0  0  0  0  1  0  0  0  0  0  0
    1.0030   64.9810   70.6040 C   0  0  0  0  0  0  0  0  0  0  0  0
    0.4560   64.4190   71.5970 O   0  0  0  0  0  0  0  0  0  0  0  0
    2.7135   70.2233   69.3089 H   0  0  0  0  0  0  0  0  0  0  0  0
    5.0353   70.8452   68.6733 H   0  0  0  0  0  0  0  0  0  0  0  0
    5.9175   70.2117   66.4297 H   0  0  0  0  0  0  0  0  0  0  0  0
    4.4975   68.9131   64.8578 H   0  0  0  0  0  0  0  0  0  0  0  0
    1.6976   67.1057   65.5283 H   0  0  0  0  0  0  0  0  0  0  0  0
    2.5827   69.0425   60.7650 H   0  0  0  0  0  0  0  0  0  0  0  0
    0.2080   69.7602   60.5175 H   0  0  0  0  0  0  0  0  0  0  0  0
   -1.3136   69.7022   62.4929 H   0  0  0  0  0  0  0  0  0  0  0  0
    0.6655   69.4274   68.8097 H   0  0  0  0  0  0  0  0  0  0  0  0
    0.2096   69.1883   67.0549 H   0  0  0  0  0  0  0  0  0  0  0  0
    0.2041   66.9433   71.0905 H   0  0  0  0  0  0  0  0  0  0  0  0
   -0.5916   66.1339   69.6894 H   0  0  0  0  0  0  0  0  0  0  0  0
  2  1  2  0
  3  2  1  0
  4  3  2  0
  5  4  1  0
  6  5  2  0
  6  1  1  0
  7  6  1  0
  8  7  1  0
  9  8  2  0
 10  9  1  0
 11  9  1  0
 12 11  2  0
 13 12  1  0
 14 13  2  0
 14  8  1  0
 15 14  1  0
 16  1  1  0
 17 16  1  0
 18 17  2  0
 19 17  1  0
 20 19  1  0
 22 20  1  0
 22 21  1  0
 23 22  2  0
  2 24  1  0
  3 25  1  0
  4 26  1  0
  5 27  1  0
  7 28  1  0
 11 29  1  0
 12 30  1  0
 13 31  1  0
 16 32  1  0
 16 33  1  0
 20 34  1  0
 20 35  1  0
M  CHG  1  21  -1
M  END
>  <score>  (5) 
-8.772

$$$$
=
     RDKit          3D

 35 36  0  0  0  0  0  0  0  0999 V2000
    3.8770   67.9790   64.6570 C   0  0  0  0  0  0  0  0  0  0  0  0
    4.6430   67.0860   63.8810 C   0  0  0  0  0  0  0  0  0  0  0  0
    4.2700   65.7510   63.7460 C   0  0  0  0  0  0  0  0  0  0  0  0
    3.1190   65.2940   64.3750 C   0  0  0  0  0  0  0  0  0  0  0  0
    2.3600   66.1680   65.1570 C   0  0  0  0  0  0  0  0  0  0  0  0
    2.7440   67.5080   65.3540 C   0  0  0  0  0  0  0  0  0  0  0  0
    1.9210   68.3900   66.1050 N   0  0  0  0  0  0  0  0  0  0  0  0
    0.5250   68.2250   66.3480 C   0  0  0  0  0  0  0  0  0  0  0  0
    0.0290   67.7240   67.5700 C   0  0  0  0  0  0  0  0  0  0  0  0
    1.0740   67.1710   68.8340 Cl  0  0  0  0  0  0  0  0  0  0  0  0
   -1.3500   67.6370   67.8040 C   0  0  0  0  0  0  0  0  0  0  0  0
   -2.2580   68.0560   66.8340 C   0  0  0  0  0  0  0  0  0  0  0  0
   -1.7870   68.5640   65.6250 C   0  0  0  0  0  0  0  0  0  0  0  0
   -0.4100   68.6540   65.3870 C   0  0  0  0  0  0  0  0  0  0  0  0
    0.0890   69.2910   63.8540 Cl  0  0  0  0  0  0  0  0  0  0  0  0
    4.3160   69.4270   64.7190 C   0  0  0  0  0  0  0  0  0  0  0  0
    5.2470   69.7320   65.8690 C   0  0  0  0  0  0  0  0  0  0  0  0
    6.4290   69.4190   65.9440 O   0  0  0  0  0  0  0  0  0  0  0  0
    4.5770   70.4790   66.7970 O   0  0  0  0  0  0  0  0  0  0  0  0
    5.0460   70.2670   68.1470 C   0  0  0  0  0  0  0  0  0  0  0  0
    6.9910   71.0070   69.3360 O   0  0  0  0  0  1  0  0  0  0  0  0
    6.0650   71.3620   68.5420 C   0  0  0  0  0  0  0  0  0  0  0  0
    5.8410   72.5010   68.0400 O   0  0  0  0  0  0  0  0  0  0  0  0
    5.5493   67.4490   63.3742 H   0  0  0  0  0  0  0  0  0  0  0  0
    4.8829   65.0630   63.1452 H   0  0  0  0  0  0  0  0  0  0  0  0
    2.8058   64.2461   64.2576 H   0  0  0  0  0  0  0  0  0  0  0  0
    1.4383   65.7996   65.6312 H   0  0  0  0  0  0  0  0  0  0  0  0
    2.3726   69.2225   66.5099 H   0  0  0  0  0  0  0  0  0  0  0  0
   -1.7178   67.2353   68.7597 H   0  0  0  0  0  0  0  0  0  0  0  0
   -3.3397   67.9863   67.0213 H   0  0  0  0  0  0  0  0  0  0  0  0
   -2.4992   68.8954   64.8550 H   0  0  0  0  0  0  0  0  0  0  0  0
    4.8325   69.6736   63.7796 H   0  0  0  0  0  0  0  0  0  0  0  0
    3.4093   70.0309   64.8713 H   0  0  0  0  0  0  0  0  0  0  0  0
    4.1905   70.3019   68.8376 H   0  0  0  0  0  0  0  0  0  0  0  0
    5.5378   69.2847   68.2038 H   0  0  0  0  0  0  0  0  0  0  0  0
  2  1  2  0
  3  2  1  0
  4  3  2  0
  5  4  1  0
  6  5  2  0
  6  1  1  0
  7  6  1  0
  8  7  1  0
  9  8  2  0
 10  9  1  0
 11  9  1  0
 12 11  2  0
 13 12  1  0
 14 13  2  0
 14  8  1  0
 15 14  1  0
 16  1  1  0
 17 16  1  0
 18 17  2  0
 19 17  1  0
 20 19  1  0
 22 20  1  0
 22 21  1  0
 23 22  2  0
  2 24  1  0
  3 25  1  0
  4 26  1  0
  5 27  1  0
  7 28  1  0
 11 29  1  0
 12 30  1  0
 13 31  1  0
 16 32  1  0
 16 33  1  0
 20 34  1  0
 20 35  1  0
M  CHG  1  21  -1
M  END
>  <score>  (6) 
-8.714

$$$$
=
     RDKit          3D

 35 36  0  0  0  0  0  0  0  0999 V2000
    3.6630   68.9940   65.3390 C   0  0  0  0  0  0  0  0  0  0  0  0
    4.7170   69.8100   65.7980 C   0  0  0  0  0  0  0  0  0  0  0  0
    4.7700   70.2360   67.1220 C   0  0  0  0  0  0  0  0  0  0  0  0
    3.7780   69.8410   68.0100 C   0  0  0  0  0  0  0  0  0  0  0  0
    2.7220   69.0430   67.5630 C   0  0  0  0  0  0  0  0  0  0  0  0
    2.6150   68.6430   66.2170 C   0  0  0  0  0  0  0  0  0  0  0  0
    1.5640   67.7810   65.8030 N   0  0  0  0  0  0  0  0  0  0  0  0
    0.1690   68.0250   65.9750 C   0  0  0  0  0  0  0  0  0  0  0  0
   -0.5150   67.6740   67.1580 C   0  0  0  0  0  0  0  0  0  0  0  0
    0.2560   66.8270   68.4550 Cl  0  0  0  0  0  0  0  0  0  0  0  0
   -1.8710   67.9880   67.3230 C   0  0  0  0  0  0  0  0  0  0  0  0
   -2.5670   68.6630   66.3220 C   0  0  0  0  0  0  0  0  0  0  0  0
   -1.9050   69.0280   65.1520 C   0  0  0  0  0  0  0  0  0  0  0  0
   -0.5500   68.7180   64.9820 C   0  0  0  0  0  0  0  0  0  0  0  0
    0.1930   69.2010   63.4920 Cl  0  0  0  0  0  0  0  0  0  0  0  0
    3.6970   68.5280   63.8990 C   0  0  0  0  0  0  0  0  0  0  0  0
    4.9370   67.7430   63.5420 C   0  0  0  0  0  0  0  0  0  0  0  0
    5.8790   68.1460   62.8720 O   0  0  0  0  0  0  0  0  0  0  0  0
    4.8760   66.5190   64.1480 O   0  0  0  0  0  0  0  0  0  0  0  0
    4.1080   65.5500   63.4000 C   0  0  0  0  0  0  0  0  0  0  0  0
    4.0230   63.9270   65.1610 O   0  0  0  0  0  1  0  0  0  0  0  0
    4.3540   64.1250   63.9510 C   0  0  0  0  0  0  0  0  0  0  0  0
    4.8810   63.3220   63.1280 O   0  0  0  0  0  0  0  0  0  0  0  0
    5.5098   70.1147   65.0990 H   0  0  0  0  0  0  0  0  0  0  0  0
    5.5927   70.8817   67.4630 H   0  0  0  0  0  0  0  0  0  0  0  0
    3.8236   70.1558   69.0630 H   0  0  0  0  0  0  0  0  0  0  0  0
    1.9543   68.7187   68.2810 H   0  0  0  0  0  0  0  0  0  0  0  0
    1.8331   66.9024   65.3376 H   0  0  0  0  0  0  0  0  0  0  0  0
   -2.3895   67.6996   68.2492 H   0  0  0  0  0  0  0  0  0  0  0  0
   -3.6316   68.9058   66.4549 H   0  0  0  0  0  0  0  0  0  0  0  0
   -2.4487   69.5618   64.3586 H   0  0  0  0  0  0  0  0  0  0  0  0
    2.8190   67.8900   63.7200 H   0  0  0  0  0  0  0  0  0  0  0  0
    3.6966   69.4304   63.2699 H   0  0  0  0  0  0  0  0  0  0  0  0
    3.0383   65.7918   63.4850 H   0  0  0  0  0  0  0  0  0  0  0  0
    4.4207   65.5838   62.3459 H   0  0  0  0  0  0  0  0  0  0  0  0
  2  1  2  0
  3  2  1  0
  4  3  2  0
  5  4  1  0
  6  5  2  0
  6  1  1  0
  7  6  1  0
  8  7  1  0
  9  8  2  0
 10  9  1  0
 11  9  1  0
 12 11  2  0
 13 12  1  0
 14 13  2  0
 14  8  1  0
 15 14  1  0
 16  1  1  0
 17 16  1  0
 18 17  2  0
 19 17  1  0
 20 19  1  0
 22 20  1  0
 22 21  1  0
 23 22  2  0
  2 24  1  0
  3 25  1  0
  4 26  1  0
  5 27  1  0
  7 28  1  0
 11 29  1  0
 12 30  1  0
 13 31  1  0
 16 32  1  0
 16 33  1  0
 20 34  1  0
 20 35  1  0
M  CHG  1  21  -1
M  END
>  <score>  (7) 
-8.689

$$$$
=
     RDKit          3D

 35 36  0  0  0  0  0  0  0  0999 V2000
    4.0400   67.9890   64.6060 C   0  0  0  0  0  0  0  0  0  0  0  0
    4.7630   67.1230   63.7610 C   0  0  0  0  0  0  0  0  0  0  0  0
    4.3910   65.7900   63.6130 C   0  0  0  0  0  0  0  0  0  0  0  0
    3.2840   65.3070   64.2970 C   0  0  0  0  0  0  0  0  0  0  0  0
    2.5680   66.1530   65.1480 C   0  0  0  0  0  0  0  0  0  0  0  0
    2.9540   67.4910   65.3570 C   0  0  0  0  0  0  0  0  0  0  0  0
    2.1720   68.3450   66.1800 N   0  0  0  0  0  0  0  0  0  0  0  0
    0.7520   68.3060   66.3130 C   0  0  0  0  0  0  0  0  0  0  0  0
   -0.1110   68.7040   65.2700 C   0  0  0  0  0  0  0  0  0  0  0  0
    0.4790   69.3680   63.7850 Cl  0  0  0  0  0  0  0  0  0  0  0  0
   -1.5010   68.5900   65.4060 C   0  0  0  0  0  0  0  0  0  0  0  0
   -2.0560   68.0710   66.5740 C   0  0  0  0  0  0  0  0  0  0  0  0
   -1.2200   67.6620   67.6100 C   0  0  0  0  0  0  0  0  0  0  0  0
    0.1700   67.7720   67.4790 C   0  0  0  0  0  0  0  0  0  0  0  0
    1.1370   67.2480   68.8190 Cl  0  0  0  0  0  0  0  0  0  0  0  0
    4.4720   69.4380   64.6810 C   0  0  0  0  0  0  0  0  0  0  0  0
    5.3130   69.7600   65.8930 C   0  0  0  0  0  0  0  0  0  0  0  0
    6.4840   69.4450   66.0640 O   0  0  0  0  0  0  0  0  0  0  0  0
    4.5780   70.5270   66.7530 O   0  0  0  0  0  0  0  0  0  0  0  0
    4.8350   70.2300   68.1440 C   0  0  0  0  0  0  0  0  0  0  0  0
    2.4630   70.3860   68.4440 O   0  0  0  0  0  1  0  0  0  0  0  0
    3.5900   70.5520   69.0040 C   0  0  0  0  0  0  0  0  0  0  0  0
    3.8450   70.9700   70.1700 O   0  0  0  0  0  0  0  0  0  0  0  0
    5.6345   67.5065   63.2101 H   0  0  0  0  0  0  0  0  0  0  0  0
    4.9708   65.1232   62.9579 H   0  0  0  0  0  0  0  0  0  0  0  0
    2.9709   64.2602   64.1694 H   0  0  0  0  0  0  0  0  0  0  0  0
    1.6802   65.7639   65.6679 H   0  0  0  0  0  0  0  0  0  0  0  0
    2.6751   69.0559   66.7299 H   0  0  0  0  0  0  0  0  0  0  0  0
   -2.1585   68.9124   64.5852 H   0  0  0  0  0  0  0  0  0  0  0  0
   -3.1478   67.9849   66.6771 H   0  0  0  0  0  0  0  0  0  0  0  0
   -1.6528   67.2513   68.5341 H   0  0  0  0  0  0  0  0  0  0  0  0
    5.0577   69.6726   63.7799 H   0  0  0  0  0  0  0  0  0  0  0  0
    3.5560   70.0425   64.7562 H   0  0  0  0  0  0  0  0  0  0  0  0
    5.0805   69.1627   68.2472 H   0  0  0  0  0  0  0  0  0  0  0  0
    5.6770   70.8472   68.4906 H   0  0  0  0  0  0  0  0  0  0  0  0
  2  1  2  0
  3  2  1  0
  4  3  2  0
  5  4  1  0
  6  5  2  0
  6  1  1  0
  7  6  1  0
  8  7  1  0
  9  8  2  0
 10  9  1  0
 11  9  1  0
 12 11  2  0
 13 12  1  0
 14 13  2  0
 14  8  1  0
 15 14  1  0
 16  1  1  0
 17 16  1  0
 18 17  2  0
 19 17  1  0
 20 19  1  0
 22 20  1  0
 22 21  1  0
 23 22  2  0
  2 24  1  0
  3 25  1  0
  4 26  1  0
  5 27  1  0
  7 28  1  0
 11 29  1  0
 12 30  1  0
 13 31  1  0
 16 32  1  0
 16 33  1  0
 20 34  1  0
 20 35  1  0
M  CHG  1  21  -1
M  END
>  <score>  (8) 
-8.534

$$$$
=
     RDKit          3D

 35 36  0  0  0  0  0  0  0  0999 V2000
    3.0040   68.4410   65.6220 C   0  0  0  0  0  0  0  0  0  0  0  0
    4.1000   69.2920   65.8710 C   0  0  0  0  0  0  0  0  0  0  0  0
    4.2310   69.9540   67.0880 C   0  0  0  0  0  0  0  0  0  0  0  0
    3.2770   69.7660   68.0780 C   0  0  0  0  0  0  0  0  0  0  0  0
    2.1800   68.9350   67.8380 C   0  0  0  0  0  0  0  0  0  0  0  0
    1.9940   68.2950   66.5970 C   0  0  0  0  0  0  0  0  0  0  0  0
    0.9020   67.4080   66.4010 N   0  0  0  0  0  0  0  0  0  0  0  0
   -0.4790   67.7670   66.4210 C   0  0  0  0  0  0  0  0  0  0  0  0
   -1.0800   68.5030   65.3790 C   0  0  0  0  0  0  0  0  0  0  0  0
   -0.1720   69.1210   64.0410 Cl  0  0  0  0  0  0  0  0  0  0  0  0
   -2.4540   68.7800   65.3950 C   0  0  0  0  0  0  0  0  0  0  0  0
   -3.2540   68.3240   66.4400 C   0  0  0  0  0  0  0  0  0  0  0  0
   -2.6800   67.5860   67.4730 C   0  0  0  0  0  0  0  0  0  0  0  0
   -1.3090   67.3040   67.4610 C   0  0  0  0  0  0  0  0  0  0  0  0
   -0.6760   66.3860   68.7890 Cl  0  0  0  0  0  0  0  0  0  0  0  0
    2.9520   67.7150   64.2940 C   0  0  0  0  0  0  0  0  0  0  0  0
    3.5110   66.3130   64.3450 C   0  0  0  0  0  0  0  0  0  0  0  0
    3.0500   65.3740   64.9820 O   0  0  0  0  0  0  0  0  0  0  0  0
    4.5870   66.2330   63.5060 O   0  0  0  0  0  0  0  0  0  0  0  0
    4.4670   67.0820   62.3430 C   0  0  0  0  0  0  0  0  0  0  0  0
    6.2850   68.2740   63.3520 O   0  0  0  0  0  1  0  0  0  0  0  0
    5.3380   68.3510   62.5100 C   0  0  0  0  0  0  0  0  0  0  0  0
    4.9860   69.3330   61.7950 O   0  0  0  0  0  0  0  0  0  0  0  0
    4.8630   69.4349   65.0917 H   0  0  0  0  0  0  0  0  0  0  0  0
    5.0863   70.6228   67.2643 H   0  0  0  0  0  0  0  0  0  0  0  0
    3.3843   70.2702   69.0497 H   0  0  0  0  0  0  0  0  0  0  0  0
    1.4426   68.7764   68.6386 H   0  0  0  0  0  0  0  0  0  0  0  0
    1.1269   66.4177   66.2292 H   0  0  0  0  0  0  0  0  0  0  0  0
   -2.9035   69.3615   64.5766 H   0  0  0  0  0  0  0  0  0  0  0  0
   -4.3315   68.5450   66.4497 H   0  0  0  0  0  0  0  0  0  0  0  0
   -3.3067   67.2235   68.3012 H   0  0  0  0  0  0  0  0  0  0  0  0
    1.9023   67.6585   63.9702 H   0  0  0  0  0  0  0  0  0  0  0  0
    3.5783   68.2849   63.5919 H   0  0  0  0  0  0  0  0  0  0  0  0
    4.8007   66.5277   61.4534 H   0  0  0  0  0  0  0  0  0  0  0  0
    3.4154   67.3833   62.2277 H   0  0  0  0  0  0  0  0  0  0  0  0
  2  1  2  0
  3  2  1  0
  4  3  2  0
  5  4  1  0
  6  5  2  0
  6  1  1  0
  7  6  1  0
  8  7  1  0
  9  8  2  0
 10  9  1  0
 11  9  1  0
 12 11  2  0
 13 12  1  0
 14 13  2  0
 14  8  1  0
 15 14  1  0
 16  1  1  0
 17 16  1  0
 18 17  2  0
 19 17  1  0
 20 19  1  0
 22 20  1  0
 22 21  1  0
 23 22  2  0
  2 24  1  0
  3 25  1  0
  4 26  1  0
  5 27  1  0
  7 28  1  0
 11 29  1  0
 12 30  1  0
 13 31  1  0
 16 32  1  0
 16 33  1  0
 20 34  1  0
 20 35  1  0
M  CHG  1  21  -1
M  END
>  <score>  (9) 
-8.259

$$$$
