=
     RDKit          3D

 64 67  0  0  0  0  0  0  0  0999 V2000
    3.4740   63.4180   70.0130 C   0  0  1  0  0  0  0  0  0  0  0  0
    2.6680   62.2170   69.9720 O   0  0  0  0  0  0  0  0  0  0  0  0
    1.4810   62.4170   70.7600 C   0  0  2  0  0  0  0  0  0  0  0  0
    1.5810   63.8110   71.3940 C   0  0  1  0  0  0  0  0  0  0  0  0
    2.5320   64.5420   70.4550 C   0  0  2  0  0  0  0  0  0  0  0  0
    1.3480   61.3550   71.7380 N   0  0  0  0  0  0  0  0  0  0  0  0
    2.2600   60.3890   72.0520 C   0  0  0  0  0  0  0  0  0  0  0  0
    1.8020   59.5770   72.9790 N   0  0  0  0  0  0  0  0  0  0  0  0
    0.5190   60.0150   73.2650 C   0  0  0  0  0  0  0  0  0  0  0  0
    0.2290   61.1360   72.4990 C   0  0  0  0  0  0  0  0  0  0  0  0
   -0.8970   61.8700   72.4950 N   0  0  0  0  0  0  0  0  0  0  0  0
   -1.7910   61.3550   73.3640 C   0  0  0  0  0  0  0  0  0  0  0  0
   -1.6490   60.2840   74.1680 N   0  0  0  0  0  0  0  0  0  0  0  0
   -0.4870   59.5570   74.1560 C   0  0  0  0  0  0  0  0  0  0  0  0
   -0.3940   58.4280   74.9800 N   0  0  0  0  0  0  0  0  0  0  0  0
    0.9330   57.8760   75.2180 C   0  0  0  0  0  0  0  0  0  0  0  0
   -1.3320   58.3950   76.0950 C   0  0  0  0  0  0  0  0  0  0  0  0
    1.7720   65.1420   69.3440 N   0  0  0  0  0  0  0  0  0  0  0  0
    1.3830   66.4550   69.3710 C   0  0  0  0  0  0  0  0  0  0  0  0
    1.6970   67.2370   70.2680 O   0  0  0  0  0  0  0  0  0  0  0  0
    0.5040   66.9480   68.2110 C   0  0  1  0  0  0  0  0  0  0  0  0
   -0.9290   66.5570   68.4940 N   0  0  0  0  0  4  0  0  0  0  0  0
    0.6060   68.4690   68.0340 C   0  0  0  0  0  0  0  0  0  0  0  0
    1.8330   68.8790   67.2570 C   0  0  0  0  0  0  0  0  0  0  0  0
    2.8940   69.5390   67.8900 C   0  0  0  0  0  0  0  0  0  0  0  0
    4.0530   69.8700   67.1800 C   0  0  0  0  0  0  0  0  0  0  0  0
    4.1630   69.5500   65.8280 C   0  0  0  0  0  0  0  0  0  0  0  0
    3.1020   68.9020   65.1930 C   0  0  0  0  0  0  0  0  0  0  0  0
    1.9410   68.5740   65.8950 C   0  0  0  0  0  0  0  0  0  0  0  0
    5.2370   69.8040   65.0250 O   0  0  0  0  0  0  0  0  0  0  0  0
    5.1470   69.3870   63.6670 C   0  0  0  0  0  0  0  0  0  0  0  0
    0.3220   64.4960   71.4560 O   0  0  0  0  0  0  0  0  0  0  0  0
    4.6420   63.2150   70.9930 C   0  0  0  0  0  0  0  0  0  0  0  0
    5.1330   61.8850   70.8690 O   0  0  0  0  0  0  0  0  0  0  0  0
    3.9218   63.6656   69.0393 H   0  0  0  0  0  0  0  0  0  0  0  0
    0.5705   62.3750   70.1442 H   0  0  0  0  0  0  0  0  0  0  0  0
    1.9186   63.7590   72.4396 H   0  0  0  0  0  0  0  0  0  0  0  0
    3.0807   65.3850   70.9003 H   0  0  0  0  0  0  0  0  0  0  0  0
    3.2533   60.3010   71.5877 H   0  0  0  0  0  0  0  0  0  0  0  0
   -2.7582   61.8756   73.4234 H   0  0  0  0  0  0  0  0  0  0  0  0
    1.1106   57.8021   76.3011 H   0  0  0  0  0  0  0  0  0  0  0  0
    1.0003   56.8753   74.7663 H   0  0  0  0  0  0  0  0  0  0  0  0
    1.6902   58.5338   74.7663 H   0  0  0  0  0  0  0  0  0  0  0  0
   -0.7751   58.4146   77.0434 H   0  0  0  0  0  0  0  0  0  0  0  0
   -1.9960   59.2703   76.0416 H   0  0  0  0  0  0  0  0  0  0  0  0
   -1.9329   57.4752   76.0416 H   0  0  0  0  0  0  0  0  0  0  0  0
    1.5280   64.5611   68.5292 H   0  0  0  0  0  0  0  0  0  0  0  0
    0.8532   66.4830   67.2773 H   0  0  0  0  0  0  0  0  0  0  0  0
   -1.0790   66.5161   69.5122 H   0  0  0  0  0  0  0  0  0  0  0  0
   -1.5634   67.2556   68.0813 H   0  0  0  0  0  0  0  0  0  0  0  0
   -1.1207   65.6330   68.0813 H   0  0  0  0  0  0  0  0  0  0  0  0
   -0.2864   68.8223   67.4965 H   0  0  0  0  0  0  0  0  0  0  0  0
    0.6789   68.9181   69.0355 H   0  0  0  0  0  0  0  0  0  0  0  0
    2.8151   69.7996   68.9558 H   0  0  0  0  0  0  0  0  0  0  0  0
    4.8804   70.3846   67.6905 H   0  0  0  0  0  0  0  0  0  0  0  0
    3.1819   68.6467   64.1260 H   0  0  0  0  0  0  0  0  0  0  0  0
    1.1090   68.0747   65.3768 H   0  0  0  0  0  0  0  0  0  0  0  0
    4.9151   68.3124   63.6280 H   0  0  0  0  0  0  0  0  0  0  0  0
    4.3503   69.9526   63.1618 H   0  0  0  0  0  0  0  0  0  0  0  0
    6.1061   69.5737   63.1618 H   0  0  0  0  0  0  0  0  0  0  0  0
    0.0678   64.6343   72.4028 H   0  0  0  0  0  0  0  0  0  0  0  0
    5.4467   63.9273   70.7585 H   0  0  0  0  0  0  0  0  0  0  0  0
    4.2937   63.3852   72.0224 H   0  0  0  0  0  0  0  0  0  0  0  0
    5.2750   61.5003   71.7701 H   0  0  0  0  0  0  0  0  0  0  0  0
  2  1  1  0
  3  2  1  0
  4  3  1  0
  5  1  1  0
  5  4  1  0
  6  3  1  0
  7  6  1  0
  8  7  2  0
  9  8  1  0
 10  9  2  0
 10  6  1  0
 11 10  1  0
 12 11  2  0
 13 12  1  0
 14 13  2  0
 14  9  1  0
 15 14  1  0
 16 15  1  0
 17 15  1  0
 18  5  1  0
 19 18  1  0
 20 19  2  0
 21 19  1  0
 22 21  1  0
 23 21  1  0
 24 23  1  0
 25 24  2  0
 26 25  1  0
 27 26  2  0
 28 27  1  0
 29 28  2  0
 29 24  1  0
 30 27  1  0
 31 30  1  0
 32  4  1  0
 33  1  1  0
 34 33  1  0
  1 35  1  6
  3 36  1  6
  4 37  1  1
  5 38  1  1
  7 39  1  0
 12 40  1  0
 16 41  1  0
 16 42  1  0
 16 43  1  0
 17 44  1  0
 17 45  1  0
 17 46  1  0
 18 47  1  0
 21 48  1  6
 22 49  1  0
 22 50  1  0
 22 51  1  0
 23 52  1  0
 23 53  1  0
 25 54  1  0
 26 55  1  0
 28 56  1  0
 29 57  1  0
 31 58  1  0
 31 59  1  0
 31 60  1  0
 32 61  1  0
 33 62  1  0
 33 63  1  0
 34 64  1  0
M  CHG  1  22   1
M  END
>  <score>  (1) 
-8.684

$$$$
=
     RDKit          3D

 64 67  0  0  0  0  0  0  0  0999 V2000
    3.2600   61.8820   71.1930 C   0  0  1  0  0  0  0  0  0  0  0  0
    2.3600   60.7740   70.9500 O   0  0  0  0  0  0  0  0  0  0  0  0
    1.5500   60.5590   72.1190 C   0  0  2  0  0  0  0  0  0  0  0  0
    2.0190   61.5510   73.1920 C   0  0  1  0  0  0  0  0  0  0  0  0
    2.6620   62.6590   72.3680 C   0  0  2  0  0  0  0  0  0  0  0  0
    1.6460   59.1750   72.5420 N   0  0  0  0  0  0  0  0  0  0  0  0
    2.6290   58.2760   72.2450 C   0  0  0  0  0  0  0  0  0  0  0  0
    2.3890   57.1020   72.7860 N   0  0  0  0  0  0  0  0  0  0  0  0
    1.1770   57.2310   73.4450 C   0  0  0  0  0  0  0  0  0  0  0  0
    0.7080   58.5300   73.3060 C   0  0  0  0  0  0  0  0  0  0  0  0
   -0.4170   59.0660   73.8130 N   0  0  0  0  0  0  0  0  0  0  0  0
   -1.1040   58.1340   74.5060 C   0  0  0  0  0  0  0  0  0  0  0  0
   -0.7740   56.8470   74.7250 N   0  0  0  0  0  0  0  0  0  0  0  0
    0.3830   56.3290   74.2020 C   0  0  0  0  0  0  0  0  0  0  0  0
    0.6710   54.9760   74.4220 N   0  0  0  0  0  0  0  0  0  0  0  0
    2.0340   54.5290   74.1680 C   0  0  0  0  0  0  0  0  0  0  0  0
   -0.0240   54.3700   75.5500 C   0  0  0  0  0  0  0  0  0  0  0  0
    1.6370   63.6380   71.9640 N   0  0  0  0  0  0  0  0  0  0  0  0
    1.6720   64.2430   70.7360 C   0  0  0  0  0  0  0  0  0  0  0  0
    2.4960   63.9660   69.8650 O   0  0  0  0  0  0  0  0  0  0  0  0
    0.6170   65.3260   70.4600 C   0  0  1  0  0  0  0  0  0  0  0  0
   -0.0970   65.6440   71.7550 N   0  0  0  0  0  4  0  0  0  0  0  0
    1.2530   66.5990   69.8870 C   0  0  0  0  0  0  0  0  0  0  0  0
    0.4660   67.1680   68.7310 C   0  0  0  0  0  0  0  0  0  0  0  0
    1.0220   68.1530   67.9030 C   0  0  0  0  0  0  0  0  0  0  0  0
    0.3110   68.6400   66.8000 C   0  0  0  0  0  0  0  0  0  0  0  0
   -0.9630   68.1530   66.5150 C   0  0  0  0  0  0  0  0  0  0  0  0
   -1.5220   67.1810   67.3460 C   0  0  0  0  0  0  0  0  0  0  0  0
   -0.8210   66.6950   68.4510 C   0  0  0  0  0  0  0  0  0  0  0  0
   -1.7550   68.5310   65.4700 O   0  0  0  0  0  0  0  0  0  0  0  0
   -3.1440   68.7000   65.7330 C   0  0  0  0  0  0  0  0  0  0  0  0
    0.9460   62.0790   73.9820 O   0  0  0  0  0  0  0  0  0  0  0  0
    4.6640   61.3380   71.5050 C   0  0  0  0  0  0  0  0  0  0  0  0
    5.0640   60.4470   70.4690 O   0  0  0  0  0  0  0  0  0  0  0  0
    3.3677   62.5451   70.3220 H   0  0  0  0  0  0  0  0  0  0  0  0
    0.4841   60.7396   71.9160 H   0  0  0  0  0  0  0  0  0  0  0  0
    2.6892   61.0744   73.9225 H   0  0  0  0  0  0  0  0  0  0  0  0
    3.4225   63.2564   72.8922 H   0  0  0  0  0  0  0  0  0  0  0  0
    3.5117   58.5050   71.6299 H   0  0  0  0  0  0  0  0  0  0  0  0
   -2.0542   58.4680   74.9482 H   0  0  0  0  0  0  0  0  0  0  0  0
    2.5489   54.3601   75.1253 H   0  0  0  0  0  0  0  0  0  0  0  0
    2.0113   53.5912   73.5935 H   0  0  0  0  0  0  0  0  0  0  0  0
    2.5710   55.2981   73.5935 H   0  0  0  0  0  0  0  0  0  0  0  0
    0.4063   54.7452   76.4903 H   0  0  0  0  0  0  0  0  0  0  0  0
   -1.0918   54.6306   75.5057 H   0  0  0  0  0  0  0  0  0  0  0  0
    0.0887   53.2767   75.5057 H   0  0  0  0  0  0  0  0  0  0  0  0
    0.8779   63.8722   72.6196 H   0  0  0  0  0  0  0  0  0  0  0  0
   -0.0941   64.9468   69.7113 H   0  0  0  0  0  0  0  0  0  0  0  0
    0.5004   65.3779   72.5507 H   0  0  0  0  0  0  0  0  0  0  0  0
   -0.2966   66.6535   71.7980 H   0  0  0  0  0  0  0  0  0  0  0  0
   -0.9810   65.1171   71.7980 H   0  0  0  0  0  0  0  0  0  0  0  0
    1.3071   67.3557   70.6835 H   0  0  0  0  0  0  0  0  0  0  0  0
    2.2528   66.3340   69.5127 H   0  0  0  0  0  0  0  0  0  0  0  0
    2.0256   68.5466   68.1219 H   0  0  0  0  0  0  0  0  0  0  0  0
    0.7598   69.4103   66.1556 H   0  0  0  0  0  0  0  0  0  0  0  0
   -2.5278   66.7929   67.1274 H   0  0  0  0  0  0  0  0  0  0  0  0
   -1.2814   65.9383   69.1033 H   0  0  0  0  0  0  0  0  0  0  0  0
   -3.3115   68.7204   66.8200 H   0  0  0  0  0  0  0  0  0  0  0  0
   -3.4883   69.6467   65.2911 H   0  0  0  0  0  0  0  0  0  0  0  0
   -3.7053   67.8635   65.2911 H   0  0  0  0  0  0  0  0  0  0  0  0
    1.1606   61.9734   74.9427 H   0  0  0  0  0  0  0  0  0  0  0  0
    5.3766   62.1737   71.5665 H   0  0  0  0  0  0  0  0  0  0  0  0
    4.6467   60.8024   72.4656 H   0  0  0  0  0  0  0  0  0  0  0  0
    5.4349   59.6209   70.8691 H   0  0  0  0  0  0  0  0  0  0  0  0
  2  1  1  0
  3  2  1  0
  4  3  1  0
  5  1  1  0
  5  4  1  0
  6  3  1  0
  7  6  1  0
  8  7  2  0
  9  8  1  0
 10  9  2  0
 10  6  1  0
 11 10  1  0
 12 11  2  0
 13 12  1  0
 14 13  2  0
 14  9  1  0
 15 14  1  0
 16 15  1  0
 17 15  1  0
 18  5  1  0
 19 18  1  0
 20 19  2  0
 21 19  1  0
 22 21  1  0
 23 21  1  0
 24 23  1  0
 25 24  2  0
 26 25  1  0
 27 26  2  0
 28 27  1  0
 29 28  2  0
 29 24  1  0
 30 27  1  0
 31 30  1  0
 32  4  1  0
 33  1  1  0
 34 33  1  0
  1 35  1  6
  3 36  1  6
  4 37  1  1
  5 38  1  1
  7 39  1  0
 12 40  1  0
 16 41  1  0
 16 42  1  0
 16 43  1  0
 17 44  1  0
 17 45  1  0
 17 46  1  0
 18 47  1  0
 21 48  1  6
 22 49  1  0
 22 50  1  0
 22 51  1  0
 23 52  1  0
 23 53  1  0
 25 54  1  0
 26 55  1  0
 28 56  1  0
 29 57  1  0
 31 58  1  0
 31 59  1  0
 31 60  1  0
 32 61  1  0
 33 62  1  0
 33 63  1  0
 34 64  1  0
M  CHG  1  22   1
M  END
>  <score>  (2) 
-8.614

$$$$
=
     RDKit          3D

 64 67  0  0  0  0  0  0  0  0999 V2000
    1.3410   61.7650   74.4400 C   0  0  1  0  0  0  0  0  0  0  0  0
    1.3140   60.4080   73.9380 O   0  0  0  0  0  0  0  0  0  0  0  0
    0.0210   60.1410   73.3640 C   0  0  2  0  0  0  0  0  0  0  0  0
   -0.8440   61.3900   73.5830 C   0  0  1  0  0  0  0  0  0  0  0  0
    0.1930   62.4960   73.7370 C   0  0  2  0  0  0  0  0  0  0  0  0
   -0.5470   58.9450   73.9540 N   0  0  0  0  0  0  0  0  0  0  0  0
   -1.6900   58.8380   74.6920 C   0  0  0  0  0  0  0  0  0  0  0  0
   -1.8990   57.6000   75.0810 N   0  0  0  0  0  0  0  0  0  0  0  0
   -0.8260   56.8670   74.6000 C   0  0  0  0  0  0  0  0  0  0  0  0
    0.0220   57.6990   73.8830 C   0  0  0  0  0  0  0  0  0  0  0  0
    1.1580   57.3740   73.2400 N   0  0  0  0  0  0  0  0  0  0  0  0
    1.4170   56.0590   73.3920 C   0  0  0  0  0  0  0  0  0  0  0  0
    0.6900   55.1370   74.0520 N   0  0  0  0  0  0  0  0  0  0  0  0
   -0.4670   55.4950   74.6930 C   0  0  0  0  0  0  0  0  0  0  0  0
   -1.1740   54.5130   75.3990 N   0  0  0  0  0  0  0  0  0  0  0  0
   -2.5490   54.8150   75.7760 C   0  0  0  0  0  0  0  0  0  0  0  0
   -0.8830   53.1400   75.0120 C   0  0  0  0  0  0  0  0  0  0  0  0
    0.5590   63.0260   72.4110 N   0  0  0  0  0  0  0  0  0  0  0  0
    0.3400   64.3360   72.0800 C   0  0  0  0  0  0  0  0  0  0  0  0
   -0.0970   65.1720   72.8710 O   0  0  0  0  0  0  0  0  0  0  0  0
    0.6590   64.7560   70.6370 C   0  0  1  0  0  0  0  0  0  0  0  0
    0.0050   66.0930   70.3690 N   0  0  0  0  0  4  0  0  0  0  0  0
    2.1710   64.8580   70.4010 C   0  0  0  0  0  0  0  0  0  0  0  0
    2.8300   63.5050   70.2860 C   0  0  0  0  0  0  0  0  0  0  0  0
    4.0020   63.2160   70.9990 C   0  0  0  0  0  0  0  0  0  0  0  0
    4.5810   61.9440   70.9330 C   0  0  0  0  0  0  0  0  0  0  0  0
    4.0000   60.9480   70.1500 C   0  0  0  0  0  0  0  0  0  0  0  0
    2.8400   61.2380   69.4300 C   0  0  0  0  0  0  0  0  0  0  0  0
    2.2600   62.5070   69.4880 C   0  0  0  0  0  0  0  0  0  0  0  0
    4.4530   59.6690   70.0060 O   0  0  0  0  0  0  0  0  0  0  0  0
    3.6180   58.6240   70.4940 C   0  0  0  0  0  0  0  0  0  0  0  0
   -1.7130   61.6770   72.4780 O   0  0  0  0  0  0  0  0  0  0  0  0
    1.1740   61.7460   75.9690 C   0  0  0  0  0  0  0  0  0  0  0  0
    2.3410   61.1890   76.5620 O   0  0  0  0  0  0  0  0  0  0  0  0
    2.2923   62.2781   74.2358 H   0  0  0  0  0  0  0  0  0  0  0  0
    0.0862   59.9428   72.2840 H   0  0  0  0  0  0  0  0  0  0  0  0
   -1.5200   61.2713   74.4426 H   0  0  0  0  0  0  0  0  0  0  0  0
   -0.1389   63.3785   74.3037 H   0  0  0  0  0  0  0  0  0  0  0  0
   -2.3534   59.6822   74.9313 H   0  0  0  0  0  0  0  0  0  0  0  0
    2.3390   55.6931   72.9166 H   0  0  0  0  0  0  0  0  0  0  0  0
   -2.6329   54.8334   76.8726 H   0  0  0  0  0  0  0  0  0  0  0  0
   -2.8333   55.7970   75.3700 H   0  0  0  0  0  0  0  0  0  0  0  0
   -3.2186   54.0425   75.3700 H   0  0  0  0  0  0  0  0  0  0  0  0
   -0.7526   52.5245   75.9143 H   0  0  0  0  0  0  0  0  0  0  0  0
   -1.7169   52.7428   74.4146 H   0  0  0  0  0  0  0  0  0  0  0  0
    0.0403   53.1153   74.4146 H   0  0  0  0  0  0  0  0  0  0  0  0
    0.9890   62.3966   71.7183 H   0  0  0  0  0  0  0  0  0  0  0  0
    0.2684   63.9909   69.9499 H   0  0  0  0  0  0  0  0  0  0  0  0
   -0.2191   66.5511   71.2639 H   0  0  0  0  0  0  0  0  0  0  0  0
    0.6498   66.6888   69.8303 H   0  0  0  0  0  0  0  0  0  0  0  0
   -0.8611   65.9497   69.8303 H   0  0  0  0  0  0  0  0  0  0  0  0
    2.3459   65.4160   69.4693 H   0  0  0  0  0  0  0  0  0  0  0  0
    2.6110   65.3718   71.2684 H   0  0  0  0  0  0  0  0  0  0  0  0
    4.4708   63.9966   71.6161 H   0  0  0  0  0  0  0  0  0  0  0  0
    5.4981   61.7292   71.5011 H   0  0  0  0  0  0  0  0  0  0  0  0
    2.3768   60.4571   68.8090 H   0  0  0  0  0  0  0  0  0  0  0  0
    1.3526   62.7226   68.9048 H   0  0  0  0  0  0  0  0  0  0  0  0
    3.6249   58.6326   71.5939 H   0  0  0  0  0  0  0  0  0  0  0  0
    2.5904   58.7767   70.1325 H   0  0  0  0  0  0  0  0  0  0  0  0
    3.9937   57.6554   70.1325 H   0  0  0  0  0  0  0  0  0  0  0  0
   -2.5955   61.9684   72.8192 H   0  0  0  0  0  0  0  0  0  0  0  0
    1.0297   62.7730   76.3358 H   0  0  0  0  0  0  0  0  0  0  0  0
    0.2979   61.1371   76.2367 H   0  0  0  0  0  0  0  0  0  0  0  0
    2.2606   61.2274   77.5480 H   0  0  0  0  0  0  0  0  0  0  0  0
  2  1  1  0
  3  2  1  0
  4  3  1  0
  5  1  1  0
  5  4  1  0
  6  3  1  0
  7  6  1  0
  8  7  2  0
  9  8  1  0
 10  9  2  0
 10  6  1  0
 11 10  1  0
 12 11  2  0
 13 12  1  0
 14 13  2  0
 14  9  1  0
 15 14  1  0
 16 15  1  0
 17 15  1  0
 18  5  1  0
 19 18  1  0
 20 19  2  0
 21 19  1  0
 22 21  1  0
 23 21  1  0
 24 23  1  0
 25 24  2  0
 26 25  1  0
 27 26  2  0
 28 27  1  0
 29 28  2  0
 29 24  1  0
 30 27  1  0
 31 30  1  0
 32  4  1  0
 33  1  1  0
 34 33  1  0
  1 35  1  1
  3 36  1  6
  4 37  1  1
  5 38  1  1
  7 39  1  0
 12 40  1  0
 16 41  1  0
 16 42  1  0
 16 43  1  0
 17 44  1  0
 17 45  1  0
 17 46  1  0
 18 47  1  0
 21 48  1  6
 22 49  1  0
 22 50  1  0
 22 51  1  0
 23 52  1  0
 23 53  1  0
 25 54  1  0
 26 55  1  0
 28 56  1  0
 29 57  1  0
 31 58  1  0
 31 59  1  0
 31 60  1  0
 32 61  1  0
 33 62  1  0
 33 63  1  0
 34 64  1  0
M  CHG  1  22   1
M  END
>  <score>  (3) 
-8.048

$$$$
=
     RDKit          3D

 64 67  0  0  0  0  0  0  0  0999 V2000
   -0.7220   67.4660   67.1180 C   0  0  1  0  0  0  0  0  0  0  0  0
    0.2570   66.7760   66.3060 O   0  0  0  0  0  0  0  0  0  0  0  0
    1.5270   67.4420   66.4280 C   0  0  2  0  0  0  0  0  0  0  0  0
    1.3160   68.6720   67.3200 C   0  0  1  0  0  0  0  0  0  0  0  0
    0.0780   68.2960   68.1260 C   0  0  2  0  0  0  0  0  0  0  0  0
    2.0420   67.7730   65.1140 N   0  0  0  0  0  0  0  0  0  0  0  0
    1.4620   67.5300   63.9020 C   0  0  0  0  0  0  0  0  0  0  0  0
    2.2160   67.9540   62.9120 N   0  0  0  0  0  0  0  0  0  0  0  0
    3.3560   68.4740   63.5030 C   0  0  0  0  0  0  0  0  0  0  0  0
    3.2530   68.3740   64.8830 C   0  0  0  0  0  0  0  0  0  0  0  0
    4.1330   68.7820   65.8140 N   0  0  0  0  0  0  0  0  0  0  0  0
    5.2190   69.3210   65.2220 C   0  0  0  0  0  0  0  0  0  0  0  0
    5.4550   69.4850   63.9070 N   0  0  0  0  0  0  0  0  0  0  0  0
    4.5370   69.0650   62.9790 C   0  0  0  0  0  0  0  0  0  0  0  0
    4.8380   69.2210   61.6200 N   0  0  0  0  0  0  0  0  0  0  0  0
    3.7400   69.0980   60.6700 C   0  0  0  0  0  0  0  0  0  0  0  0
    5.8610   70.2140   61.3210 C   0  0  0  0  0  0  0  0  0  0  0  0
    0.4760   67.5400   69.3260 N   0  0  0  0  0  0  0  0  0  0  0  0
   -0.0890   66.3290   69.6280 C   0  0  0  0  0  0  0  0  0  0  0  0
   -0.8970   65.7560   68.8980 O   0  0  0  0  0  0  0  0  0  0  0  0
    0.3210   65.6780   70.9580 C   0  0  1  0  0  0  0  0  0  0  0  0
   -0.5470   66.2460   72.0590 N   0  0  0  0  0  4  0  0  0  0  0  0
    0.1700   64.1520   70.9090 C   0  0  0  0  0  0  0  0  0  0  0  0
    1.4970   63.4450   70.7850 C   0  0  0  0  0  0  0  0  0  0  0  0
    2.6710   64.1650   70.5210 C   0  0  0  0  0  0  0  0  0  0  0  0
    3.9080   63.5130   70.4600 C   0  0  0  0  0  0  0  0  0  0  0  0
    3.9860   62.1360   70.6580 C   0  0  0  0  0  0  0  0  0  0  0  0
    2.8170   61.4170   70.9100 C   0  0  0  0  0  0  0  0  0  0  0  0
    1.5790   62.0590   70.9660 C   0  0  0  0  0  0  0  0  0  0  0  0
    5.1240   61.3830   70.6370 O   0  0  0  0  0  0  0  0  0  0  0  0
    5.6260   60.9280   71.8890 C   0  0  0  0  0  0  0  0  0  0  0  0
    2.4190   68.9310   68.1990 O   0  0  0  0  0  0  0  0  0  0  0  0
   -1.6090   68.3380   66.2140 C   0  0  0  0  0  0  0  0  0  0  0  0
   -1.8540   69.5840   66.8570 O   0  0  0  0  0  0  0  0  0  0  0  0
   -1.3971   66.7799   67.6506 H   0  0  0  0  0  0  0  0  0  0  0  0
    2.2845   66.7954   66.8949 H   0  0  0  0  0  0  0  0  0  0  0  0
    1.2157   69.5923   66.7259 H   0  0  0  0  0  0  0  0  0  0  0  0
   -0.5077   69.1418   68.5155 H   0  0  0  0  0  0  0  0  0  0  0  0
    0.4857   67.0406   63.7704 H   0  0  0  0  0  0  0  0  0  0  0  0
    6.0118   69.6706   65.8997 H   0  0  0  0  0  0  0  0  0  0  0  0
    2.7918   68.9918   61.2173 H   0  0  0  0  0  0  0  0  0  0  0  0
    3.6997   69.9972   60.0378 H   0  0  0  0  0  0  0  0  0  0  0  0
    3.8997   68.2121   60.0378 H   0  0  0  0  0  0  0  0  0  0  0  0
    6.2712   70.6122   62.2607 H   0  0  0  0  0  0  0  0  0  0  0  0
    6.6677   69.7454   60.7382 H   0  0  0  0  0  0  0  0  0  0  0  0
    5.4166   71.0343   60.7382 H   0  0  0  0  0  0  0  0  0  0  0  0
    1.1949   67.9304   69.9518 H   0  0  0  0  0  0  0  0  0  0  0  0
    1.3815   65.8987   71.1496 H   0  0  0  0  0  0  0  0  0  0  0  0
   -0.1526   65.9879   72.9748 H   0  0  0  0  0  0  0  0  0  0  0  0
   -0.5792   67.2721   71.9759 H   0  0  0  0  0  0  0  0  0  0  0  0
   -1.5002   65.8647   71.9759 H   0  0  0  0  0  0  0  0  0  0  0  0
   -0.3238   63.8163   71.8328 H   0  0  0  0  0  0  0  0  0  0  0  0
   -0.4264   63.9030   70.0189 H   0  0  0  0  0  0  0  0  0  0  0  0
    2.6193   65.2520   70.3604 H   0  0  0  0  0  0  0  0  0  0  0  0
    4.8219   64.0898   70.2550 H   0  0  0  0  0  0  0  0  0  0  0  0
    2.8719   60.3296   71.0666 H   0  0  0  0  0  0  0  0  0  0  0  0
    0.6658   61.4749   71.1527 H   0  0  0  0  0  0  0  0  0  0  0  0
    5.0795   61.4233   72.7051 H   0  0  0  0  0  0  0  0  0  0  0  0
    5.4900   59.8391   71.9647 H   0  0  0  0  0  0  0  0  0  0  0  0
    6.6964   61.1700   71.9647 H   0  0  0  0  0  0  0  0  0  0  0  0
    2.1158   68.8598   69.1387 H   0  0  0  0  0  0  0  0  0  0  0  0
   -1.0976   68.5131   65.2560 H   0  0  0  0  0  0  0  0  0  0  0  0
   -2.5640   67.8246   66.0287 H   0  0  0  0  0  0  0  0  0  0  0  0
   -1.8295   69.4591   67.8388 H   0  0  0  0  0  0  0  0  0  0  0  0
  2  1  1  0
  3  2  1  0
  4  3  1  0
  5  1  1  0
  5  4  1  0
  6  3  1  0
  7  6  1  0
  8  7  2  0
  9  8  1  0
 10  9  2  0
 10  6  1  0
 11 10  1  0
 12 11  2  0
 13 12  1  0
 14 13  2  0
 14  9  1  0
 15 14  1  0
 16 15  1  0
 17 15  1  0
 18  5  1  0
 19 18  1  0
 20 19  2  0
 21 19  1  0
 22 21  1  0
 23 21  1  0
 24 23  1  0
 25 24  2  0
 26 25  1  0
 27 26  2  0
 28 27  1  0
 29 28  2  0
 29 24  1  0
 30 27  1  0
 31 30  1  0
 32  4  1  0
 33  1  1  0
 34 33  1  0
  1 35  1  1
  3 36  1  1
  4 37  1  6
  5 38  1  1
  7 39  1  0
 12 40  1  0
 16 41  1  0
 16 42  1  0
 16 43  1  0
 17 44  1  0
 17 45  1  0
 17 46  1  0
 18 47  1  0
 21 48  1  1
 22 49  1  0
 22 50  1  0
 22 51  1  0
 23 52  1  0
 23 53  1  0
 25 54  1  0
 26 55  1  0
 28 56  1  0
 29 57  1  0
 31 58  1  0
 31 59  1  0
 31 60  1  0
 32 61  1  0
 33 62  1  0
 33 63  1  0
 34 64  1  0
M  CHG  1  22   1
M  END
>  <score>  (4) 
-7.565

$$$$
=
     RDKit          3D

 64 67  0  0  0  0  0  0  0  0999 V2000
    2.5780   61.3840   71.0730 C   0  0  1  0  0  0  0  0  0  0  0  0
    1.5630   60.5590   71.6940 O   0  0  0  0  0  0  0  0  0  0  0  0
    1.5250   60.8380   73.1050 C   0  0  2  0  0  0  0  0  0  0  0  0
    2.6370   61.8530   73.4020 C   0  0  1  0  0  0  0  0  0  0  0  0
    2.8450   62.5300   72.0530 C   0  0  2  0  0  0  0  0  0  0  0  0
    1.6620   59.6070   73.8580 N   0  0  0  0  0  0  0  0  0  0  0  0
    1.5100   58.3280   73.4050 C   0  0  0  0  0  0  0  0  0  0  0  0
    1.6960   57.4500   74.3660 N   0  0  0  0  0  0  0  0  0  0  0  0
    1.9530   58.1910   75.5090 C   0  0  0  0  0  0  0  0  0  0  0  0
    1.9450   59.5440   75.1980 C   0  0  0  0  0  0  0  0  0  0  0  0
    2.1720   60.5860   76.0170 N   0  0  0  0  0  0  0  0  0  0  0  0
    2.4070   60.1480   77.2710 C   0  0  0  0  0  0  0  0  0  0  0  0
    2.4490   58.8780   77.7160 N   0  0  0  0  0  0  0  0  0  0  0  0
    2.2200   57.8340   76.8580 C   0  0  0  0  0  0  0  0  0  0  0  0
    2.2360   56.5300   77.3680 N   0  0  0  0  0  0  0  0  0  0  0  0
    2.3360   55.4350   76.4120 C   0  0  0  0  0  0  0  0  0  0  0  0
    2.9390   56.3680   78.6340 C   0  0  0  0  0  0  0  0  0  0  0  0
    1.9060   63.6560   71.9100 N   0  0  0  0  0  0  0  0  0  0  0  0
    1.2480   63.8930   70.7320 C   0  0  0  0  0  0  0  0  0  0  0  0
    1.3290   63.1560   69.7490 O   0  0  0  0  0  0  0  0  0  0  0  0
    0.3740   65.1550   70.6600 C   0  0  1  0  0  0  0  0  0  0  0  0
   -0.1220   65.4760   72.0520 N   0  0  0  0  0  4  0  0  0  0  0  0
    1.1560   66.3490   70.0970 C   0  0  0  0  0  0  0  0  0  0  0  0
    0.4700   66.9780   68.9080 C   0  0  0  0  0  0  0  0  0  0  0  0
   -0.8410   66.6180   68.5640 C   0  0  0  0  0  0  0  0  0  0  0  0
   -1.4930   67.2410   67.4950 C   0  0  0  0  0  0  0  0  0  0  0  0
   -0.8430   68.2260   66.7540 C   0  0  0  0  0  0  0  0  0  0  0  0
    0.4660   68.5770   67.0880 C   0  0  0  0  0  0  0  0  0  0  0  0
    1.1240   67.9550   68.1500 C   0  0  0  0  0  0  0  0  0  0  0  0
   -1.3660   68.9180   65.6990 O   0  0  0  0  0  0  0  0  0  0  0  0
   -2.7810   68.9000   65.5470 C   0  0  0  0  0  0  0  0  0  0  0  0
    2.2680   62.8240   74.3910 O   0  0  0  0  0  0  0  0  0  0  0  0
    3.8330   60.5350   70.8100 C   0  0  0  0  0  0  0  0  0  0  0  0
    3.4630   59.1630   70.7250 O   0  0  0  0  0  0  0  0  0  0  0  0
    2.2642   61.7889   70.0996 H   0  0  0  0  0  0  0  0  0  0  0  0
    0.5617   61.2729   73.4099 H   0  0  0  0  0  0  0  0  0  0  0  0
    3.5327   61.3657   73.8146 H   0  0  0  0  0  0  0  0  0  0  0  0
    3.8374   62.9783   71.8977 H   0  0  0  0  0  0  0  0  0  0  0  0
    1.2628   58.0649   72.3659 H   0  0  0  0  0  0  0  0  0  0  0  0
    2.5872   60.9275   78.0259 H   0  0  0  0  0  0  0  0  0  0  0  0
    2.4231   54.4818   76.9541 H   0  0  0  0  0  0  0  0  0  0  0  0
    1.4358   55.4166   75.7801 H   0  0  0  0  0  0  0  0  0  0  0  0
    3.2246   55.5799   75.7801 H   0  0  0  0  0  0  0  0  0  0  0  0
    2.2378   56.5296   79.4660 H   0  0  0  0  0  0  0  0  0  0  0  0
    3.3532   55.3509   78.6958 H   0  0  0  0  0  0  0  0  0  0  0  0
    3.7566   57.1013   78.6958 H   0  0  0  0  0  0  0  0  0  0  0  0
    1.7405   64.2789   72.7134 H   0  0  0  0  0  0  0  0  0  0  0  0
   -0.4719   64.9642   69.9832 H   0  0  0  0  0  0  0  0  0  0  0  0
    0.5158   65.0632   72.7474 H   0  0  0  0  0  0  0  0  0  0  0  0
   -0.1529   66.4978   72.1783 H   0  0  0  0  0  0  0  0  0  0  0  0
   -1.0668   65.0857   72.1783 H   0  0  0  0  0  0  0  0  0  0  0  0
    1.2596   67.1075   70.8870 H   0  0  0  0  0  0  0  0  0  0  0  0
    2.1363   65.9795   69.7616 H   0  0  0  0  0  0  0  0  0  0  0  0
   -1.3612   65.8386   69.1401 H   0  0  0  0  0  0  0  0  0  0  0  0
   -2.5229   66.9523   67.2382 H   0  0  0  0  0  0  0  0  0  0  0  0
    0.9853   69.3534   66.5070 H   0  0  0  0  0  0  0  0  0  0  0  0
    2.1602   68.2339   68.3918 H   0  0  0  0  0  0  0  0  0  0  0  0
   -3.2563   68.8940   66.5390 H   0  0  0  0  0  0  0  0  0  0  0  0
   -3.1016   69.7941   64.9923 H   0  0  0  0  0  0  0  0  0  0  0  0
   -3.0787   67.9980   64.9923 H   0  0  0  0  0  0  0  0  0  0  0  0
    2.4117   62.4458   75.2945 H   0  0  0  0  0  0  0  0  0  0  0  0
    4.2979   60.8496   69.8640 H   0  0  0  0  0  0  0  0  0  0  0  0
    4.5505   60.6731   71.6322 H   0  0  0  0  0  0  0  0  0  0  0  0
    3.3627   58.7911   71.6370 H   0  0  0  0  0  0  0  0  0  0  0  0
  2  1  1  0
  3  2  1  0
  4  3  1  0
  5  1  1  0
  5  4  1  0
  6  3  1  0
  7  6  1  0
  8  7  2  0
  9  8  1  0
 10  9  2  0
 10  6  1  0
 11 10  1  0
 12 11  2  0
 13 12  1  0
 14 13  2  0
 14  9  1  0
 15 14  1  0
 16 15  1  0
 17 15  1  0
 18  5  1  0
 19 18  1  0
 20 19  2  0
 21 19  1  0
 22 21  1  0
 23 21  1  0
 24 23  1  0
 25 24  2  0
 26 25  1  0
 27 26  2  0
 28 27  1  0
 29 28  2  0
 29 24  1  0
 30 27  1  0
 31 30  1  0
 32  4  1  0
 33  1  1  0
 34 33  1  0
  1 35  1  6
  3 36  1  6
  4 37  1  1
  5 38  1  1
  7 39  1  0
 12 40  1  0
 16 41  1  0
 16 42  1  0
 16 43  1  0
 17 44  1  0
 17 45  1  0
 17 46  1  0
 18 47  1  0
 21 48  1  6
 22 49  1  0
 22 50  1  0
 22 51  1  0
 23 52  1  0
 23 53  1  0
 25 54  1  0
 26 55  1  0
 28 56  1  0
 29 57  1  0
 31 58  1  0
 31 59  1  0
 31 60  1  0
 32 61  1  0
 33 62  1  0
 33 63  1  0
 34 64  1  0
M  CHG  1  22   1
M  END
>  <score>  (5) 
-7.523

$$$$
=
     RDKit          3D

 64 67  0  0  0  0  0  0  0  0999 V2000
    1.9180   56.4590   73.7620 C   0  0  1  0  0  0  0  0  0  0  0  0
    0.5510   56.6660   73.3310 O   0  0  0  0  0  0  0  0  0  0  0  0
    0.1470   58.0050   73.6680 C   0  0  2  0  0  0  0  0  0  0  0  0
    1.3120   58.6600   74.4220 C   0  0  1  0  0  0  0  0  0  0  0  0
    2.5160   57.8560   73.9470 C   0  0  2  0  0  0  0  0  0  0  0  0
   -1.0820   57.9740   74.4350 N   0  0  0  0  0  0  0  0  0  0  0  0
   -1.5800   56.9420   75.1770 C   0  0  0  0  0  0  0  0  0  0  0  0
   -2.7290   57.2570   75.7330 N   0  0  0  0  0  0  0  0  0  0  0  0
   -3.0120   58.5460   75.3110 C   0  0  0  0  0  0  0  0  0  0  0  0
   -1.9800   59.0090   74.5050 C   0  0  0  0  0  0  0  0  0  0  0  0
   -1.8610   60.2120   73.9160 N   0  0  0  0  0  0  0  0  0  0  0  0
   -2.9380   60.9740   74.1960 C   0  0  0  0  0  0  0  0  0  0  0  0
   -4.0050   60.6630   74.9570 N   0  0  0  0  0  0  0  0  0  0  0  0
   -4.0970   59.4310   75.5500 C   0  0  0  0  0  0  0  0  0  0  0  0
   -5.2400   59.1340   76.3040 N   0  0  0  0  0  0  0  0  0  0  0  0
   -5.1770   57.9830   77.1960 C   0  0  0  0  0  0  0  0  0  0  0  0
   -5.9940   60.2900   76.7700 C   0  0  0  0  0  0  0  0  0  0  0  0
    3.0440   58.4390   72.7000 N   0  0  0  0  0  0  0  0  0  0  0  0
    4.0330   59.3850   72.7160 C   0  0  0  0  0  0  0  0  0  0  0  0
    4.5990   59.7580   73.7430 O   0  0  0  0  0  0  0  0  0  0  0  0
    4.4320   60.0020   71.3660 C   0  0  1  0  0  0  0  0  0  0  0  0
    3.2600   59.8840   70.4170 N   0  0  0  0  0  4  0  0  0  0  0  0
    4.8350   61.4750   71.5170 C   0  0  0  0  0  0  0  0  0  0  0  0
    3.6650   62.4140   71.3450 C   0  0  0  0  0  0  0  0  0  0  0  0
    2.6190   62.4330   72.2790 C   0  0  0  0  0  0  0  0  0  0  0  0
    1.5630   63.3410   72.1470 C   0  0  0  0  0  0  0  0  0  0  0  0
    1.5360   64.2350   71.0790 C   0  0  0  0  0  0  0  0  0  0  0  0
    2.5710   64.2090   70.1420 C   0  0  0  0  0  0  0  0  0  0  0  0
    3.6240   63.3030   70.2650 C   0  0  0  0  0  0  0  0  0  0  0  0
    0.5760   65.1750   70.8390 O   0  0  0  0  0  0  0  0  0  0  0  0
    0.9290   66.2670   69.9970 C   0  0  0  0  0  0  0  0  0  0  0  0
    1.4850   60.0470   74.1010 O   0  0  0  0  0  0  0  0  0  0  0  0
    1.9230   55.6430   75.0660 C   0  0  0  0  0  0  0  0  0  0  0  0
    3.1140   54.8670   75.1300 O   0  0  0  0  0  0  0  0  0  0  0  0
    2.5146   55.8895   73.0342 H   0  0  0  0  0  0  0  0  0  0  0  0
   -0.0717   58.6038   72.7715 H   0  0  0  0  0  0  0  0  0  0  0  0
    1.1513   58.6466   75.5101 H   0  0  0  0  0  0  0  0  0  0  0  0
    3.3766   57.8450   74.6321 H   0  0  0  0  0  0  0  0  0  0  0  0
   -1.0820   55.9683   75.2950 H   0  0  0  0  0  0  0  0  0  0  0  0
   -2.9461   61.9775   73.7454 H   0  0  0  0  0  0  0  0  0  0  0  0
   -5.1958   58.3272   78.2406 H   0  0  0  0  0  0  0  0  0  0  0  0
   -6.0406   57.3275   77.0103 H   0  0  0  0  0  0  0  0  0  0  0  0
   -4.2470   57.4257   77.0103 H   0  0  0  0  0  0  0  0  0  0  0  0
   -6.0025   60.3031   77.8699 H   0  0  0  0  0  0  0  0  0  0  0  0
   -5.5221   61.2106   76.3960 H   0  0  0  0  0  0  0  0  0  0  0  0
   -7.0267   60.2292   76.3960 H   0  0  0  0  0  0  0  0  0  0  0  0
    2.6600   58.1274   71.7965 H   0  0  0  0  0  0  0  0  0  0  0  0
    5.3037   59.4594   70.9714 H   0  0  0  0  0  0  0  0  0  0  0  0
    2.3878   59.7962   70.9578 H   0  0  0  0  0  0  0  0  0  0  0  0
    3.2128   60.7245   69.8235 H   0  0  0  0  0  0  0  0  0  0  0  0
    3.3813   59.0510   69.8235 H   0  0  0  0  0  0  0  0  0  0  0  0
    5.2620   61.6231   72.5199 H   0  0  0  0  0  0  0  0  0  0  0  0
    5.5669   61.7043   70.7285 H   0  0  0  0  0  0  0  0  0  0  0  0
    2.6290   61.7276   73.1230 H   0  0  0  0  0  0  0  0  0  0  0  0
    0.7511   63.3491   72.8891 H   0  0  0  0  0  0  0  0  0  0  0  0
    2.5555   64.9121   69.2961 H   0  0  0  0  0  0  0  0  0  0  0  0
    4.4247   63.2871   69.5109 H   0  0  0  0  0  0  0  0  0  0  0  0
    1.2086   67.1320   70.6163 H   0  0  0  0  0  0  0  0  0  0  0  0
    1.7802   65.9802   69.3620 H   0  0  0  0  0  0  0  0  0  0  0  0
    0.0710   66.5327   69.3620 H   0  0  0  0  0  0  0  0  0  0  0  0
    1.5507   60.5735   74.9368 H   0  0  0  0  0  0  0  0  0  0  0  0
    1.8827   56.3261   75.9272 H   0  0  0  0  0  0  0  0  0  0  0  0
    1.0476   54.9773   75.0877 H   0  0  0  0  0  0  0  0  0  0  0  0
    3.3550   54.7100   76.0773 H   0  0  0  0  0  0  0  0  0  0  0  0
  2  1  1  0
  3  2  1  0
  4  3  1  0
  5  1  1  0
  5  4  1  0
  6  3  1  0
  7  6  1  0
  8  7  2  0
  9  8  1  0
 10  9  2  0
 10  6  1  0
 11 10  1  0
 12 11  2  0
 13 12  1  0
 14 13  2  0
 14  9  1  0
 15 14  1  0
 16 15  1  0
 17 15  1  0
 18  5  1  0
 19 18  1  0
 20 19  2  0
 21 19  1  0
 22 21  1  0
 23 21  1  0
 24 23  1  0
 25 24  2  0
 26 25  1  0
 27 26  2  0
 28 27  1  0
 29 28  2  0
 29 24  1  0
 30 27  1  0
 31 30  1  0
 32  4  1  0
 33  1  1  0
 34 33  1  0
  1 35  1  6
  3 36  1  6
  4 37  1  1
  5 38  1  1
  7 39  1  0
 12 40  1  0
 16 41  1  0
 16 42  1  0
 16 43  1  0
 17 44  1  0
 17 45  1  0
 17 46  1  0
 18 47  1  0
 21 48  1  6
 22 49  1  0
 22 50  1  0
 22 51  1  0
 23 52  1  0
 23 53  1  0
 25 54  1  0
 26 55  1  0
 28 56  1  0
 29 57  1  0
 31 58  1  0
 31 59  1  0
 31 60  1  0
 32 61  1  0
 33 62  1  0
 33 63  1  0
 34 64  1  0
M  CHG  1  22   1
M  END
>  <score>  (6) 
-7.519

$$$$
=
     RDKit          3D

 64 67  0  0  0  0  0  0  0  0999 V2000
    0.7680   63.9000   74.6460 C   0  0  1  0  0  0  0  0  0  0  0  0
    1.8960   62.9960   74.7300 O   0  0  0  0  0  0  0  0  0  0  0  0
    1.6620   61.8670   73.8690 C   0  0  2  0  0  0  0  0  0  0  0  0
    0.2650   62.0380   73.2570 C   0  0  1  0  0  0  0  0  0  0  0  0
    0.0380   63.5420   73.3480 C   0  0  2  0  0  0  0  0  0  0  0  0
    1.8090   60.6340   74.6170 N   0  0  0  0  0  0  0  0  0  0  0  0
    1.9180   60.4840   75.9690 C   0  0  0  0  0  0  0  0  0  0  0  0
    2.0510   59.2190   76.3050 N   0  0  0  0  0  0  0  0  0  0  0  0
    2.0590   58.5120   75.1140 C   0  0  0  0  0  0  0  0  0  0  0  0
    1.8980   59.3890   74.0500 C   0  0  0  0  0  0  0  0  0  0  0  0
    1.8300   59.1000   72.7380 N   0  0  0  0  0  0  0  0  0  0  0  0
    1.9650   57.7720   72.5470 C   0  0  0  0  0  0  0  0  0  0  0  0
    2.1250   56.8080   73.4750 N   0  0  0  0  0  0  0  0  0  0  0  0
    2.1840   57.1300   74.8060 C   0  0  0  0  0  0  0  0  0  0  0  0
    2.3880   56.1030   75.7360 N   0  0  0  0  0  0  0  0  0  0  0  0
    2.1090   56.3970   77.1350 C   0  0  0  0  0  0  0  0  0  0  0  0
    2.0590   54.7650   75.2640 C   0  0  0  0  0  0  0  0  0  0  0  0
    0.6010   64.2040   72.1570 N   0  0  0  0  0  0  0  0  0  0  0  0
    0.1470   65.4260   71.7370 C   0  0  0  0  0  0  0  0  0  0  0  0
   -0.6900   66.0870   72.3510 O   0  0  0  0  0  0  0  0  0  0  0  0
    0.7270   65.9740   70.4240 C   0  0  1  0  0  0  0  0  0  0  0  0
    1.5250   64.8760   69.7550 N   0  0  0  0  0  4  0  0  0  0  0  0
   -0.3790   66.4640   69.4810 C   0  0  0  0  0  0  0  0  0  0  0  0
    0.1680   67.2250   68.2970 C   0  0  0  0  0  0  0  0  0  0  0  0
    1.3610   67.9540   68.4030 C   0  0  0  0  0  0  0  0  0  0  0  0
    1.8940   68.6140   67.2910 C   0  0  0  0  0  0  0  0  0  0  0  0
    1.2390   68.5590   66.0620 C   0  0  0  0  0  0  0  0  0  0  0  0
    0.0450   67.8430   65.9580 C   0  0  0  0  0  0  0  0  0  0  0  0
   -0.4950   67.1870   67.0650 C   0  0  0  0  0  0  0  0  0  0  0  0
    1.6540   69.1450   64.9010 O   0  0  0  0  0  0  0  0  0  0  0  0
    1.4470   68.4170   63.6950 C   0  0  0  0  0  0  0  0  0  0  0  0
    0.1880   61.6070   71.8920 O   0  0  0  0  0  0  0  0  0  0  0  0
   -0.1220   63.7190   75.8870 C   0  0  0  0  0  0  0  0  0  0  0  0
    0.6260   64.0420   77.0530 O   0  0  0  0  0  0  0  0  0  0  0  0
    1.0677   64.9582   74.6270 H   0  0  0  0  0  0  0  0  0  0  0  0
    2.3985   61.8152   73.0535 H   0  0  0  0  0  0  0  0  0  0  0  0
   -0.4857   61.4280   73.7808 H   0  0  0  0  0  0  0  0  0  0  0  0
   -1.0148   63.8600   73.3690 H   0  0  0  0  0  0  0  0  0  0  0  0
    1.8973   61.3164   76.6878 H   0  0  0  0  0  0  0  0  0  0  0  0
    1.9416   57.4325   71.5010 H   0  0  0  0  0  0  0  0  0  0  0  0
    2.7245   55.7484   77.7758 H   0  0  0  0  0  0  0  0  0  0  0  0
    2.3474   57.4505   77.3429 H   0  0  0  0  0  0  0  0  0  0  0  0
    1.0444   56.2140   77.3429 H   0  0  0  0  0  0  0  0  0  0  0  0
    1.8959   54.1018   76.1263 H   0  0  0  0  0  0  0  0  0  0  0  0
    1.1441   54.8058   74.6546 H   0  0  0  0  0  0  0  0  0  0  0  0
    2.8885   54.3769   74.6546 H   0  0  0  0  0  0  0  0  0  0  0  0
    1.3523   63.7372   71.6292 H   0  0  0  0  0  0  0  0  0  0  0  0
    1.3720   66.8353   70.6525 H   0  0  0  0  0  0  0  0  0  0  0  0
    1.9584   64.2796   70.4743 H   0  0  0  0  0  0  0  0  0  0  0  0
    0.8996   64.3061   69.1677 H   0  0  0  0  0  0  0  0  0  0  0  0
    2.2602   65.2949   69.1677 H   0  0  0  0  0  0  0  0  0  0  0  0
   -0.9401   65.5928   69.1121 H   0  0  0  0  0  0  0  0  0  0  0  0
   -1.0251   67.1488   70.0498 H   0  0  0  0  0  0  0  0  0  0  0  0
    1.8827   68.0074   69.3699 H   0  0  0  0  0  0  0  0  0  0  0  0
    2.8333   69.1784   67.3868 H   0  0  0  0  0  0  0  0  0  0  0  0
   -0.4769   67.7953   64.9909 H   0  0  0  0  0  0  0  0  0  0  0  0
   -1.4438   66.6388   66.9691 H   0  0  0  0  0  0  0  0  0  0  0  0
    1.1534   67.3846   63.9357 H   0  0  0  0  0  0  0  0  0  0  0  0
    0.6499   68.8976   63.1088 H   0  0  0  0  0  0  0  0  0  0  0  0
    2.3777   68.4064   63.1088 H   0  0  0  0  0  0  0  0  0  0  0  0
    0.0140   60.6329   71.8628 H   0  0  0  0  0  0  0  0  0  0  0  0
   -0.9944   64.3850   75.8139 H   0  0  0  0  0  0  0  0  0  0  0  0
   -0.4642   62.6752   75.9461 H   0  0  0  0  0  0  0  0  0  0  0  0
    0.0971   63.8136   77.8581 H   0  0  0  0  0  0  0  0  0  0  0  0
  2  1  1  0
  3  2  1  0
  4  3  1  0
  5  1  1  0
  5  4  1  0
  6  3  1  0
  7  6  1  0
  8  7  2  0
  9  8  1  0
 10  9  2  0
 10  6  1  0
 11 10  1  0
 12 11  2  0
 13 12  1  0
 14 13  2  0
 14  9  1  0
 15 14  1  0
 16 15  1  0
 17 15  1  0
 18  5  1  0
 19 18  1  0
 20 19  2  0
 21 19  1  0
 22 21  1  0
 23 21  1  0
 24 23  1  0
 25 24  2  0
 26 25  1  0
 27 26  2  0
 28 27  1  0
 29 28  2  0
 29 24  1  0
 30 27  1  0
 31 30  1  0
 32  4  1  0
 33  1  1  0
 34 33  1  0
  1 35  1  6
  3 36  1  6
  4 37  1  1
  5 38  1  1
  7 39  1  0
 12 40  1  0
 16 41  1  0
 16 42  1  0
 16 43  1  0
 17 44  1  0
 17 45  1  0
 17 46  1  0
 18 47  1  0
 21 48  1  1
 22 49  1  0
 22 50  1  0
 22 51  1  0
 23 52  1  0
 23 53  1  0
 25 54  1  0
 26 55  1  0
 28 56  1  0
 29 57  1  0
 31 58  1  0
 31 59  1  0
 31 60  1  0
 32 61  1  0
 33 62  1  0
 33 63  1  0
 34 64  1  0
M  CHG  1  22   1
M  END
>  <score>  (7) 
-7.382

$$$$
=
     RDKit          3D

 64 67  0  0  0  0  0  0  0  0999 V2000
    1.6180   56.2530   73.4600 C   0  0  1  0  0  0  0  0  0  0  0  0
    0.1860   56.4370   73.3600 O   0  0  0  0  0  0  0  0  0  0  0  0
   -0.2460   57.3470   74.3880 C   0  0  2  0  0  0  0  0  0  0  0  0
    0.9850   57.7020   75.2330 C   0  0  1  0  0  0  0  0  0  0  0  0
    2.1390   57.4400   74.2740 C   0  0  2  0  0  0  0  0  0  0  0  0
   -1.3150   56.7480   75.1630 N   0  0  0  0  0  0  0  0  0  0  0  0
   -1.6120   55.4230   75.2950 C   0  0  0  0  0  0  0  0  0  0  0  0
   -2.6600   55.2370   76.0670 N   0  0  0  0  0  0  0  0  0  0  0  0
   -3.0870   56.5030   76.4340 C   0  0  0  0  0  0  0  0  0  0  0  0
   -2.2440   57.4570   75.8800 C   0  0  0  0  0  0  0  0  0  0  0  0
   -2.3020   58.7940   76.0140 N   0  0  0  0  0  0  0  0  0  0  0  0
   -3.3550   59.1390   76.7840 C   0  0  0  0  0  0  0  0  0  0  0  0
   -4.2480   58.3300   77.3840 N   0  0  0  0  0  0  0  0  0  0  0  0
   -4.1620   56.9700   77.2360 C   0  0  0  0  0  0  0  0  0  0  0  0
   -5.1330   56.1660   77.8470 N   0  0  0  0  0  0  0  0  0  0  0  0
   -4.8450   54.7430   77.9740 C   0  0  0  0  0  0  0  0  0  0  0  0
   -5.8570   56.7940   78.9440 C   0  0  0  0  0  0  0  0  0  0  0  0
    2.3950   58.6420   73.4610 N   0  0  0  0  0  0  0  0  0  0  0  0
    3.5630   59.3480   73.5780 C   0  0  0  0  0  0  0  0  0  0  0  0
    4.4990   58.9990   74.2970 O   0  0  0  0  0  0  0  0  0  0  0  0
    3.6810   60.6450   72.7620 C   0  0  1  0  0  0  0  0  0  0  0  0
    5.1080   60.7830   72.2810 N   0  0  0  0  0  4  0  0  0  0  0  0
    2.7240   60.6450   71.5630 C   0  0  0  0  0  0  0  0  0  0  0  0
    2.0080   61.9630   71.3950 C   0  0  0  0  0  0  0  0  0  0  0  0
    0.6850   62.1200   71.8320 C   0  0  0  0  0  0  0  0  0  0  0  0
    0.0420   63.3580   71.7250 C   0  0  0  0  0  0  0  0  0  0  0  0
    0.7100   64.4510   71.1760 C   0  0  0  0  0  0  0  0  0  0  0  0
    2.0230   64.2930   70.7310 C   0  0  0  0  0  0  0  0  0  0  0  0
    2.6690   63.0600   70.8300 C   0  0  0  0  0  0  0  0  0  0  0  0
    0.2060   65.7110   71.0250 O   0  0  0  0  0  0  0  0  0  0  0  0
    0.7180   66.4920   69.9510 C   0  0  0  0  0  0  0  0  0  0  0  0
    1.0000   59.0700   75.6640 O   0  0  0  0  0  0  0  0  0  0  0  0
    1.9110   54.9040   74.1380 C   0  0  0  0  0  0  0  0  0  0  0  0
    2.7080   54.1050   73.2700 O   0  0  0  0  0  0  0  0  0  0  0  0
    2.1157   56.2254   72.4794 H   0  0  0  0  0  0  0  0  0  0  0  0
   -0.6615   58.2739   73.9658 H   0  0  0  0  0  0  0  0  0  0  0  0
    1.0210   57.1189   76.1650 H   0  0  0  0  0  0  0  0  0  0  0  0
    3.1060   57.2179   74.7489 H   0  0  0  0  0  0  0  0  0  0  0  0
   -1.0453   54.6114   74.8153 H   0  0  0  0  0  0  0  0  0  0  0  0
   -3.5023   60.2177   76.9413 H   0  0  0  0  0  0  0  0  0  0  0  0
   -4.7905   54.4736   79.0391 H   0  0  0  0  0  0  0  0  0  0  0  0
   -5.6439   54.1625   77.4894 H   0  0  0  0  0  0  0  0  0  0  0  0
   -3.8833   54.5189   77.4894 H   0  0  0  0  0  0  0  0  0  0  0  0
   -5.4493   56.4403   79.9025 H   0  0  0  0  0  0  0  0  0  0  0  0
   -5.7457   57.8864   78.8790 H   0  0  0  0  0  0  0  0  0  0  0  0
   -6.9227   56.5295   78.8790 H   0  0  0  0  0  0  0  0  0  0  0  0
    1.6802   58.9582   72.7902 H   0  0  0  0  0  0  0  0  0  0  0  0
    3.4065   61.4949   73.4042 H   0  0  0  0  0  0  0  0  0  0  0  0
    5.7394   60.8441   73.0925 H   0  0  0  0  0  0  0  0  0  0  0  0
    5.3592   59.9624   71.7115 H   0  0  0  0  0  0  0  0  0  0  0  0
    5.1973   61.6366   71.7115 H   0  0  0  0  0  0  0  0  0  0  0  0
    3.3021   60.4388   70.6502 H   0  0  0  0  0  0  0  0  0  0  0  0
    1.9627   59.8716   71.7430 H   0  0  0  0  0  0  0  0  0  0  0  0
    0.1478   61.2622   72.2628 H   0  0  0  0  0  0  0  0  0  0  0  0
   -0.9947   63.4691   72.0755 H   0  0  0  0  0  0  0  0  0  0  0  0
    2.5559   65.1516   70.2965 H   0  0  0  0  0  0  0  0  0  0  0  0
    3.7002   62.9498   70.4632 H   0  0  0  0  0  0  0  0  0  0  0  0
    1.2790   67.3477   70.3548 H   0  0  0  0  0  0  0  0  0  0  0  0
    1.3865   65.8735   69.3341 H   0  0  0  0  0  0  0  0  0  0  0  0
   -0.1158   66.8584   69.3341 H   0  0  0  0  0  0  0  0  0  0  0  0
    1.0004   59.1043   76.6534 H   0  0  0  0  0  0  0  0  0  0  0  0
    2.4526   55.0760   75.0799 H   0  0  0  0  0  0  0  0  0  0  0  0
    0.9647   54.3853   74.3514 H   0  0  0  0  0  0  0  0  0  0  0  0
    3.2946   53.5169   73.8087 H   0  0  0  0  0  0  0  0  0  0  0  0
  2  1  1  0
  3  2  1  0
  4  3  1  0
  5  1  1  0
  5  4  1  0
  6  3  1  0
  7  6  1  0
  8  7  2  0
  9  8  1  0
 10  9  2  0
 10  6  1  0
 11 10  1  0
 12 11  2  0
 13 12  1  0
 14 13  2  0
 14  9  1  0
 15 14  1  0
 16 15  1  0
 17 15  1  0
 18  5  1  0
 19 18  1  0
 20 19  2  0
 21 19  1  0
 22 21  1  0
 23 21  1  0
 24 23  1  0
 25 24  2  0
 26 25  1  0
 27 26  2  0
 28 27  1  0
 29 28  2  0
 29 24  1  0
 30 27  1  0
 31 30  1  0
 32  4  1  0
 33  1  1  0
 34 33  1  0
  1 35  1  6
  3 36  1  6
  4 37  1  1
  5 38  1  1
  7 39  1  0
 12 40  1  0
 16 41  1  0
 16 42  1  0
 16 43  1  0
 17 44  1  0
 17 45  1  0
 17 46  1  0
 18 47  1  0
 21 48  1  1
 22 49  1  0
 22 50  1  0
 22 51  1  0
 23 52  1  0
 23 53  1  0
 25 54  1  0
 26 55  1  0
 28 56  1  0
 29 57  1  0
 31 58  1  0
 31 59  1  0
 31 60  1  0
 32 61  1  0
 33 62  1  0
 33 63  1  0
 34 64  1  0
M  CHG  1  22   1
M  END
>  <score>  (8) 
-7.258

$$$$
=
     RDKit          3D

 64 67  0  0  0  0  0  0  0  0999 V2000
    1.2730   56.1130   75.6870 C   0  0  1  0  0  0  0  0  0  0  0  0
    1.8770   57.4180   75.8610 O   0  0  0  0  0  0  0  0  0  0  0  0
    1.2520   58.3520   74.9630 C   0  0  2  0  0  0  0  0  0  0  0  0
    0.2370   57.5680   74.1200 C   0  0  1  0  0  0  0  0  0  0  0  0
   -0.0710   56.3610   74.9970 C   0  0  2  0  0  0  0  0  0  0  0  0
    2.2580   59.0220   74.1640 N   0  0  0  0  0  0  0  0  0  0  0  0
    3.6020   58.7820   74.1370 C   0  0  0  0  0  0  0  0  0  0  0  0
    4.2200   59.5890   73.3030 N   0  0  0  0  0  0  0  0  0  0  0  0
    3.2390   60.4160   72.7820 C   0  0  0  0  0  0  0  0  0  0  0  0
    2.0040   60.0630   73.3080 C   0  0  0  0  0  0  0  0  0  0  0  0
    0.8020   60.6030   73.0410 N   0  0  0  0  0  0  0  0  0  0  0  0
    0.9330   61.6140   72.1570 C   0  0  0  0  0  0  0  0  0  0  0  0
    2.0560   62.0640   71.5670 N   0  0  0  0  0  0  0  0  0  0  0  0
    3.2670   61.4900   71.8520 C   0  0  0  0  0  0  0  0  0  0  0  0
    4.4170   62.0120   71.2440 N   0  0  0  0  0  0  0  0  0  0  0  0
    5.6250   61.1970   71.2790 C   0  0  0  0  0  0  0  0  0  0  0  0
    4.1800   62.7900   70.0350 C   0  0  0  0  0  0  0  0  0  0  0  0
   -1.1600   56.6910   75.9340 N   0  0  0  0  0  0  0  0  0  0  0  0
   -2.3520   56.0170   75.9110 C   0  0  0  0  0  0  0  0  0  0  0  0
   -2.5740   55.0560   75.1760 O   0  0  0  0  0  0  0  0  0  0  0  0
   -3.4540   56.5140   76.8590 C   0  0  1  0  0  0  0  0  0  0  0  0
   -3.1810   55.9680   78.2430 N   0  0  0  0  0  4  0  0  0  0  0  0
   -3.5100   58.0470   76.9050 C   0  0  0  0  0  0  0  0  0  0  0  0
   -4.4370   58.6220   75.8610 C   0  0  0  0  0  0  0  0  0  0  0  0
   -5.5010   57.8640   75.3530 C   0  0  0  0  0  0  0  0  0  0  0  0
   -6.3900   58.4170   74.4250 C   0  0  0  0  0  0  0  0  0  0  0  0
   -6.2250   59.7320   73.9920 C   0  0  0  0  0  0  0  0  0  0  0  0
   -5.1590   60.4830   74.4890 C   0  0  0  0  0  0  0  0  0  0  0  0
   -4.2650   59.9350   75.4100 C   0  0  0  0  0  0  0  0  0  0  0  0
   -7.0230   60.3940   73.1050 O   0  0  0  0  0  0  0  0  0  0  0  0
   -7.9650   61.3170   73.6400 C   0  0  0  0  0  0  0  0  0  0  0  0
   -0.9640   58.3050   73.8510 O   0  0  0  0  0  0  0  0  0  0  0  0
    2.2080   55.2280   74.8460 C   0  0  0  0  0  0  0  0  0  0  0  0
    3.5040   55.2210   75.4340 O   0  0  0  0  0  0  0  0  0  0  0  0
    1.1134   55.5845   76.6384 H   0  0  0  0  0  0  0  0  0  0  0  0
    0.7195   59.1468   75.5058 H   0  0  0  0  0  0  0  0  0  0  0  0
    0.6380   57.3216   73.1257 H   0  0  0  0  0  0  0  0  0  0  0  0
   -0.4278   55.4679   74.4631 H   0  0  0  0  0  0  0  0  0  0  0  0
    4.1048   58.0100   74.7379 H   0  0  0  0  0  0  0  0  0  0  0  0
    0.0044   62.1366   71.8839 H   0  0  0  0  0  0  0  0  0  0  0  0
    5.9082   61.0059   72.3246 H   0  0  0  0  0  0  0  0  0  0  0  0
    5.4369   60.2405   70.7694 H   0  0  0  0  0  0  0  0  0  0  0  0
    6.4415   61.7296   70.7694 H   0  0  0  0  0  0  0  0  0  0  0  0
    3.8696   63.8089   70.3096 H   0  0  0  0  0  0  0  0  0  0  0  0
    5.1049   62.8359   69.4413 H   0  0  0  0  0  0  0  0  0  0  0  0
    3.3866   62.3125   69.4413 H   0  0  0  0  0  0  0  0  0  0  0  0
   -1.0214   57.4454   76.6214 H   0  0  0  0  0  0  0  0  0  0  0  0
   -4.4270   56.1588   76.4887 H   0  0  0  0  0  0  0  0  0  0  0  0
   -3.5164   56.6388   78.9490 H   0  0  0  0  0  0  0  0  0  0  0  0
   -3.6726   55.0706   78.3612 H   0  0  0  0  0  0  0  0  0  0  0  0
   -2.1682   55.8228   78.3612 H   0  0  0  0  0  0  0  0  0  0  0  0
   -3.8624   58.3577   77.8996 H   0  0  0  0  0  0  0  0  0  0  0  0
   -2.4979   58.4253   76.6989 H   0  0  0  0  0  0  0  0  0  0  0  0
   -5.6383   56.8250   75.6870 H   0  0  0  0  0  0  0  0  0  0  0  0
   -7.2222   57.8121   74.0356 H   0  0  0  0  0  0  0  0  0  0  0  0
   -5.0215   61.5205   74.1504 H   0  0  0  0  0  0  0  0  0  0  0  0
   -3.4230   60.5371   75.7822 H   0  0  0  0  0  0  0  0  0  0  0  0
   -7.9292   61.2819   74.7389 H   0  0  0  0  0  0  0  0  0  0  0  0
   -7.7183   62.3327   73.2973 H   0  0  0  0  0  0  0  0  0  0  0  0
   -8.9755   61.0497   73.2973 H   0  0  0  0  0  0  0  0  0  0  0  0
   -1.3894   58.5661   74.7059 H   0  0  0  0  0  0  0  0  0  0  0  0
    1.8131   54.2018   74.8150 H   0  0  0  0  0  0  0  0  0  0  0  0
    2.2700   55.6260   73.8224 H   0  0  0  0  0  0  0  0  0  0  0  0
    3.4189   55.2215   76.4203 H   0  0  0  0  0  0  0  0  0  0  0  0
  2  1  1  0
  3  2  1  0
  4  3  1  0
  5  1  1  0
  5  4  1  0
  6  3  1  0
  7  6  1  0
  8  7  2  0
  9  8  1  0
 10  9  2  0
 10  6  1  0
 11 10  1  0
 12 11  2  0
 13 12  1  0
 14 13  2  0
 14  9  1  0
 15 14  1  0
 16 15  1  0
 17 15  1  0
 18  5  1  0
 19 18  1  0
 20 19  2  0
 21 19  1  0
 22 21  1  0
 23 21  1  0
 24 23  1  0
 25 24  2  0
 26 25  1  0
 27 26  2  0
 28 27  1  0
 29 28  2  0
 29 24  1  0
 30 27  1  0
 31 30  1  0
 32  4  1  0
 33  1  1  0
 34 33  1  0
  1 35  1  1
  3 36  1  1
  4 37  1  6
  5 38  1  6
  7 39  1  0
 12 40  1  0
 16 41  1  0
 16 42  1  0
 16 43  1  0
 17 44  1  0
 17 45  1  0
 17 46  1  0
 18 47  1  0
 21 48  1  6
 22 49  1  0
 22 50  1  0
 22 51  1  0
 23 52  1  0
 23 53  1  0
 25 54  1  0
 26 55  1  0
 28 56  1  0
 29 57  1  0
 31 58  1  0
 31 59  1  0
 31 60  1  0
 32 61  1  0
 33 62  1  0
 33 63  1  0
 34 64  1  0
M  CHG  1  22   1
M  END
>  <score>  (9) 
-6.94

$$$$
