=
     RDKit          3D

 43 46  0  0  0  0  0  0  0  0999 V2000
    2.2740   68.5390   64.4100 C   0  0  1  0  0  0  0  0  0  0  0  0
    0.7700   68.4620   64.1510 C   0  0  0  0  0  0  0  0  0  0  0  0
    0.2470   68.5730   65.5560 C   0  0  0  0  0  0  0  0  0  0  0  0
    1.1390   68.8840   66.4490 N   0  0  0  0  0  0  0  0  0  0  0  0
    2.3450   68.9620   65.8110 N   0  0  0  0  0  0  0  0  0  0  0  0
    5.0020   63.0280   63.4760 Br  0  0  0  0  0  0  0  0  0  0  0  0
    4.1750   64.7060   63.7470 C   0  0  0  0  0  0  0  0  0  0  0  0
    4.5220   65.7870   62.9420 C   0  0  0  0  0  0  0  0  0  0  0  0
    3.9120   67.0260   63.1430 C   0  0  0  0  0  0  0  0  0  0  0  0
    2.9410   67.1960   64.1470 C   0  0  0  0  0  0  0  0  0  0  0  0
    2.6120   66.0930   64.9540 C   0  0  0  0  0  0  0  0  0  0  0  0
    3.2240   64.8530   64.7530 C   0  0  0  0  0  0  0  0  0  0  0  0
    3.4790   69.4160   66.4790 C   0  0  0  0  0  0  0  0  0  0  0  0
    4.7430   69.4750   65.8660 C   0  0  0  0  0  0  0  0  0  0  0  0
    5.8740   69.9360   66.5520 C   0  0  0  0  0  0  0  0  0  0  0  0
    5.7530   70.3540   67.8750 C   0  0  0  0  0  0  0  0  0  0  0  0
    4.5210   70.2970   68.5220 C   0  0  0  0  0  0  0  0  0  0  0  0
    3.4010   69.8360   67.8210 C   0  0  0  0  0  0  0  0  0  0  0  0
    7.1700   70.9430   68.7580 S   0  0  0  0  0  6  0  0  0  0  0  0
    8.2990   70.1080   68.4240 O   0  0  0  0  0  0  0  0  0  0  0  0
    7.2090   72.3840   68.6610 O   0  0  0  0  0  0  0  0  0  0  0  0
    6.7320   70.6150   70.3520 N   0  0  0  0  0  0  0  0  0  0  0  0
   -1.1420   68.3940   65.9070 C   0  0  0  0  0  0  0  0  0  0  0  0
   -2.2440   68.9660   65.2960 C   0  0  0  0  0  0  0  0  0  0  0  0
   -3.4730   68.5710   65.9010 C   0  0  0  0  0  0  0  0  0  0  0  0
   -3.2710   67.7080   66.9540 C   0  0  0  0  0  0  0  0  0  0  0  0
   -1.6130   67.3820   67.2040 S   0  0  0  0  0  0  0  0  0  0  0  0
    2.8110   69.2338   63.7475 H   0  0  0  0  0  0  0  0  0  0  0  0
    0.4228   69.2942   63.5210 H   0  0  0  0  0  0  0  0  0  0  0  0
    0.4426   67.5628   63.6085 H   0  0  0  0  0  0  0  0  0  0  0  0
    5.2750   65.6651   62.1495 H   0  0  0  0  0  0  0  0  0  0  0  0
    4.1936   67.8797   62.5091 H   0  0  0  0  0  0  0  0  0  0  0  0
    1.8644   66.2073   65.7527 H   0  0  0  0  0  0  0  0  0  0  0  0
    2.9552   63.9957   65.3877 H   0  0  0  0  0  0  0  0  0  0  0  0
    4.8465   69.1506   64.8200 H   0  0  0  0  0  0  0  0  0  0  0  0
    6.8517   69.9677   66.0489 H   0  0  0  0  0  0  0  0  0  0  0  0
    4.4293   70.6108   69.5723 H   0  0  0  0  0  0  0  0  0  0  0  0
    2.4288   69.8005   68.3345 H   0  0  0  0  0  0  0  0  0  0  0  0
    7.3780   71.0987   70.9920 H   0  0  0  0  0  0  0  0  0  0  0  0
    5.7711   70.9461   70.5191 H   0  0  0  0  0  0  0  0  0  0  0  0
   -2.1789   69.6506   64.4374 H   0  0  0  0  0  0  0  0  0  0  0  0
   -4.4631   68.9144   65.5666 H   0  0  0  0  0  0  0  0  0  0  0  0
   -4.0810   67.2792   67.5623 H   0  0  0  0  0  0  0  0  0  0  0  0
  2  1  1  0
  3  2  1  0
  4  3  2  0
  5  1  1  0
  5  4  1  0
  7  6  1  0
  8  7  2  0
  9  8  1  0
 10  9  2  0
 10  1  1  0
 11 10  1  0
 12  7  1  0
 12 11  2  0
 13  5  1  0
 14 13  2  0
 15 14  1  0
 16 15  2  0
 17 16  1  0
 18 17  2  0
 18 13  1  0
 19 16  1  0
 20 19  2  0
 21 19  2  0
 22 19  1  0
 23  3  1  0
 24 23  2  0
 25 24  1  0
 26 25  2  0
 27 26  1  0
 27 23  1  0
  1 28  1  6
  2 29  1  0
  2 30  1  0
  8 31  1  0
  9 32  1  0
 11 33  1  0
 12 34  1  0
 14 35  1  0
 15 36  1  0
 17 37  1  0
 18 38  1  0
 22 39  1  0
 22 40  1  0
 24 41  1  0
 25 42  1  0
 26 43  1  0
M  END
>  <score>  (1) 
-9.387

$$$$
=
     RDKit          3D

 43 46  0  0  0  0  0  0  0  0999 V2000
    2.0580   58.7080   73.1590 C   0  0  1  0  0  0  0  0  0  0  0  0
    2.3580   59.3550   71.8090 C   0  0  0  0  0  0  0  0  0  0  0  0
    3.2810   60.4610   72.2370 C   0  0  0  0  0  0  0  0  0  0  0  0
    3.6700   60.4000   73.4770 N   0  0  0  0  0  0  0  0  0  0  0  0
    3.0420   59.3290   74.0480 N   0  0  0  0  0  0  0  0  0  0  0  0
   -3.7990   59.8930   74.8890 Br  0  0  0  0  0  0  0  0  0  0  0  0
   -2.0220   59.5200   74.3630 C   0  0  0  0  0  0  0  0  0  0  0  0
   -1.4330   58.3110   74.7230 C   0  0  0  0  0  0  0  0  0  0  0  0
   -0.1200   58.0360   74.3370 C   0  0  0  0  0  0  0  0  0  0  0  0
    0.6160   58.9640   73.5770 C   0  0  0  0  0  0  0  0  0  0  0  0
    0.0050   60.1820   73.2310 C   0  0  0  0  0  0  0  0  0  0  0  0
   -1.3090   60.4570   73.6200 C   0  0  0  0  0  0  0  0  0  0  0  0
    3.3640   58.9170   75.3390 C   0  0  0  0  0  0  0  0  0  0  0  0
    2.9930   59.6510   76.4790 C   0  0  0  0  0  0  0  0  0  0  0  0
    3.3230   59.2230   77.7720 C   0  0  0  0  0  0  0  0  0  0  0  0
    4.0330   58.0360   77.9420 C   0  0  0  0  0  0  0  0  0  0  0  0
    4.4300   57.2880   76.8360 C   0  0  0  0  0  0  0  0  0  0  0  0
    4.0900   57.7300   75.5530 C   0  0  0  0  0  0  0  0  0  0  0  0
    4.4560   57.4750   79.5670 S   0  0  0  0  0  6  0  0  0  0  0  0
    3.7660   58.2990   80.5310 O   0  0  0  0  0  0  0  0  0  0  0  0
    4.3960   56.0320   79.5890 O   0  0  0  0  0  0  0  0  0  0  0  0
    6.0970   57.8550   79.6360 N   0  0  0  0  0  0  0  0  0  0  0  0
    3.7490   61.5000   71.3500 C   0  0  0  0  0  0  0  0  0  0  0  0
    4.8380   62.3330   71.5330 C   0  0  0  0  0  0  0  0  0  0  0  0
    5.0140   63.2490   70.4550 C   0  0  0  0  0  0  0  0  0  0  0  0
    4.0570   63.0840   69.4810 C   0  0  0  0  0  0  0  0  0  0  0  0
    2.9570   61.8350   69.8700 S   0  0  0  0  0  0  0  0  0  0  0  0
    2.1425   57.6113   73.1619 H   0  0  0  0  0  0  0  0  0  0  0  0
    2.8552   58.6531   71.1234 H   0  0  0  0  0  0  0  0  0  0  0  0
    1.4699   59.6878   71.2517 H   0  0  0  0  0  0  0  0  0  0  0  0
   -2.0009   57.5743   75.3102 H   0  0  0  0  0  0  0  0  0  0  0  0
    0.3447   57.0831   74.6302 H   0  0  0  0  0  0  0  0  0  0  0  0
    0.5670   60.9264   72.6480 H   0  0  0  0  0  0  0  0  0  0  0  0
   -1.7787   61.4114   73.3398 H   0  0  0  0  0  0  0  0  0  0  0  0
    2.4284   60.5866   76.3528 H   0  0  0  0  0  0  0  0  0  0  0  0
    3.0238   59.8197   78.6463 H   0  0  0  0  0  0  0  0  0  0  0  0
    5.0047   56.3597   76.9700 H   0  0  0  0  0  0  0  0  0  0  0  0
    4.3997   57.1311   74.6839 H   0  0  0  0  0  0  0  0  0  0  0  0
    6.3925   57.9234   80.6203 H   0  0  0  0  0  0  0  0  0  0  0  0
    6.6403   57.1176   79.1649 H   0  0  0  0  0  0  0  0  0  0  0  0
    5.4959   62.2930   72.4136 H   0  0  0  0  0  0  0  0  0  0  0  0
    5.8185   63.9978   70.4078 H   0  0  0  0  0  0  0  0  0  0  0  0
    4.0057   63.6846   68.5609 H   0  0  0  0  0  0  0  0  0  0  0  0
  2  1  1  0
  3  2  1  0
  4  3  2  0
  5  1  1  0
  5  4  1  0
  7  6  1  0
  8  7  2  0
  9  8  1  0
 10  9  2  0
 10  1  1  0
 11 10  1  0
 12  7  1  0
 12 11  2  0
 13  5  1  0
 14 13  2  0
 15 14  1  0
 16 15  2  0
 17 16  1  0
 18 17  2  0
 18 13  1  0
 19 16  1  0
 20 19  2  0
 21 19  2  0
 22 19  1  0
 23  3  1  0
 24 23  2  0
 25 24  1  0
 26 25  2  0
 27 26  1  0
 27 23  1  0
  1 28  1  6
  2 29  1  0
  2 30  1  0
  8 31  1  0
  9 32  1  0
 11 33  1  0
 12 34  1  0
 14 35  1  0
 15 36  1  0
 17 37  1  0
 18 38  1  0
 22 39  1  0
 22 40  1  0
 24 41  1  0
 25 42  1  0
 26 43  1  0
M  END
>  <score>  (2) 
-7.567

$$$$
=
     RDKit          3D

 43 46  0  0  0  0  0  0  0  0999 V2000
    0.7390   59.2350   74.9770 C   0  0  1  0  0  0  0  0  0  0  0  0
    0.6520   57.8330   75.5780 C   0  0  0  0  0  0  0  0  0  0  0  0
    0.7670   56.9970   74.3340 C   0  0  0  0  0  0  0  0  0  0  0  0
    1.0860   57.6550   73.2590 N   0  0  0  0  0  0  0  0  0  0  0  0
    1.1680   58.9760   73.6000 N   0  0  0  0  0  0  0  0  0  0  0  0
   -4.7130   62.1850   75.4990 Br  0  0  0  0  0  0  0  0  0  0  0  0
   -3.0600   61.2850   75.3270 C   0  0  0  0  0  0  0  0  0  0  0  0
   -2.9650   60.1600   74.5130 C   0  0  0  0  0  0  0  0  0  0  0  0
   -1.7440   59.4940   74.3890 C   0  0  0  0  0  0  0  0  0  0  0  0
   -0.6020   59.9510   75.0700 C   0  0  0  0  0  0  0  0  0  0  0  0
   -0.7220   61.0840   75.8940 C   0  0  0  0  0  0  0  0  0  0  0  0
   -1.9440   61.7500   76.0200 C   0  0  0  0  0  0  0  0  0  0  0  0
    1.6310   59.9230   72.6890 C   0  0  0  0  0  0  0  0  0  0  0  0
    0.9980   61.1640   72.5030 C   0  0  0  0  0  0  0  0  0  0  0  0
    1.4770   62.1060   71.5830 C   0  0  0  0  0  0  0  0  0  0  0  0
    2.6130   61.8150   70.8310 C   0  0  0  0  0  0  0  0  0  0  0  0
    3.2600   60.5900   70.9760 C   0  0  0  0  0  0  0  0  0  0  0  0
    2.7690   59.6630   71.9020 C   0  0  0  0  0  0  0  0  0  0  0  0
    3.2370   62.9930   69.6650 S   0  0  0  0  0  6  0  0  0  0  0  0
    4.5470   63.4180   70.0980 O   0  0  0  0  0  0  0  0  0  0  0  0
    2.9770   62.5050   68.3300 O   0  0  0  0  0  0  0  0  0  0  0  0
    2.1720   64.2800   69.8860 N   0  0  0  0  0  0  0  0  0  0  0  0
    0.5820   55.5650   74.3150 C   0  0  0  0  0  0  0  0  0  0  0  0
   -0.6110   54.8700   74.3950 C   0  0  0  0  0  0  0  0  0  0  0  0
   -0.4280   53.4580   74.3460 C   0  0  0  0  0  0  0  0  0  0  0  0
    0.9000   53.1180   74.2280 C   0  0  0  0  0  0  0  0  0  0  0  0
    1.9110   54.4950   74.1760 S   0  0  0  0  0  0  0  0  0  0  0  0
    1.4341   59.9081   75.5002 H   0  0  0  0  0  0  0  0  0  0  0  0
    1.4790   57.6381   76.2767 H   0  0  0  0  0  0  0  0  0  0  0  0
   -0.2518   57.6448   76.1761 H   0  0  0  0  0  0  0  0  0  0  0  0
   -3.8493   59.7966   73.9689 H   0  0  0  0  0  0  0  0  0  0  0  0
   -1.6748   58.6008   73.7507 H   0  0  0  0  0  0  0  0  0  0  0  0
    0.1562   61.4503   76.4458 H   0  0  0  0  0  0  0  0  0  0  0  0
   -2.0247   62.6382   76.6639 H   0  0  0  0  0  0  0  0  0  0  0  0
    0.1024   61.4021   73.0956 H   0  0  0  0  0  0  0  0  0  0  0  0
    0.9598   63.0684   71.4554 H   0  0  0  0  0  0  0  0  0  0  0  0
    4.1468   60.3541   70.3695 H   0  0  0  0  0  0  0  0  0  0  0  0
    3.2887   58.7005   72.0188 H   0  0  0  0  0  0  0  0  0  0  0  0
    2.0362   64.4441   70.8937 H   0  0  0  0  0  0  0  0  0  0  0  0
    2.5623   65.1274   69.4497 H   0  0  0  0  0  0  0  0  0  0  0  0
   -1.5942   55.3547   74.4865 H   0  0  0  0  0  0  0  0  0  0  0  0
   -1.2492   52.7278   74.3964 H   0  0  0  0  0  0  0  0  0  0  0  0
    1.2675   52.0826   74.1736 H   0  0  0  0  0  0  0  0  0  0  0  0
  2  1  1  0
  3  2  1  0
  4  3  2  0
  5  1  1  0
  5  4  1  0
  7  6  1  0
  8  7  2  0
  9  8  1  0
 10  9  2  0
 10  1  1  0
 11 10  1  0
 12  7  1  0
 12 11  2  0
 13  5  1  0
 14 13  2  0
 15 14  1  0
 16 15  2  0
 17 16  1  0
 18 17  2  0
 18 13  1  0
 19 16  1  0
 20 19  2  0
 21 19  2  0
 22 19  1  0
 23  3  1  0
 24 23  2  0
 25 24  1  0
 26 25  2  0
 27 26  1  0
 27 23  1  0
  1 28  1  1
  2 29  1  0
  2 30  1  0
  8 31  1  0
  9 32  1  0
 11 33  1  0
 12 34  1  0
 14 35  1  0
 15 36  1  0
 17 37  1  0
 18 38  1  0
 22 39  1  0
 22 40  1  0
 24 41  1  0
 25 42  1  0
 26 43  1  0
M  END
>  <score>  (3) 
-7.298

$$$$
=
     RDKit          3D

 43 46  0  0  0  0  0  0  0  0999 V2000
    1.7610   61.1400   74.9620 C   0  0  1  0  0  0  0  0  0  0  0  0
    1.1190   62.3790   75.5830 C   0  0  0  0  0  0  0  0  0  0  0  0
   -0.3120   61.9260   75.6740 C   0  0  0  0  0  0  0  0  0  0  0  0
   -0.5050   60.6660   75.4170 N   0  0  0  0  0  0  0  0  0  0  0  0
    0.7060   60.1320   75.0730 N   0  0  0  0  0  0  0  0  0  0  0  0
    3.6370   62.3190   69.1490 Br  0  0  0  0  0  0  0  0  0  0  0  0
    3.0550   61.9560   70.9110 C   0  0  0  0  0  0  0  0  0  0  0  0
    1.6990   62.0190   71.2190 C   0  0  0  0  0  0  0  0  0  0  0  0
    1.2700   61.7530   72.5200 C   0  0  0  0  0  0  0  0  0  0  0  0
    2.1920   61.4130   73.5260 C   0  0  0  0  0  0  0  0  0  0  0  0
    3.5570   61.3630   73.1960 C   0  0  0  0  0  0  0  0  0  0  0  0
    3.9860   61.6300   71.8930 C   0  0  0  0  0  0  0  0  0  0  0  0
    0.8510   58.7600   74.8770 C   0  0  0  0  0  0  0  0  0  0  0  0
    0.0140   58.0280   74.0160 C   0  0  0  0  0  0  0  0  0  0  0  0
    0.1750   56.6490   73.8290 C   0  0  0  0  0  0  0  0  0  0  0  0
    1.1910   55.9770   74.5040 C   0  0  0  0  0  0  0  0  0  0  0  0
    2.0310   56.6650   75.3770 C   0  0  0  0  0  0  0  0  0  0  0  0
    1.8580   58.0420   75.5500 C   0  0  0  0  0  0  0  0  0  0  0  0
    1.4120   54.2350   74.2780 S   0  0  0  0  0  6  0  0  0  0  0  0
    1.9100   53.6720   75.5100 O   0  0  0  0  0  0  0  0  0  0  0  0
    0.2570   53.7070   73.5900 O   0  0  0  0  0  0  0  0  0  0  0  0
    2.6610   54.2000   73.1470 N   0  0  0  0  0  0  0  0  0  0  0  0
   -1.4010   62.7940   76.0550 C   0  0  0  0  0  0  0  0  0  0  0  0
   -1.3470   64.1540   76.3010 C   0  0  0  0  0  0  0  0  0  0  0  0
   -2.6150   64.6980   76.6560 C   0  0  0  0  0  0  0  0  0  0  0  0
   -3.5990   63.7380   76.6680 C   0  0  0  0  0  0  0  0  0  0  0  0
   -2.9930   62.1950   76.2530 S   0  0  0  0  0  0  0  0  0  0  0  0
    2.6873   60.8147   75.4582 H   0  0  0  0  0  0  0  0  0  0  0  0
    1.5392   62.6007   76.5751 H   0  0  0  0  0  0  0  0  0  0  0  0
    1.2714   63.3089   75.0155 H   0  0  0  0  0  0  0  0  0  0  0  0
    0.9677   62.2777   70.4391 H   0  0  0  0  0  0  0  0  0  0  0  0
    0.1983   61.8099   72.7614 H   0  0  0  0  0  0  0  0  0  0  0  0
    4.2955   61.1111   73.9713 H   0  0  0  0  0  0  0  0  0  0  0  0
    5.0564   61.5827   71.6442 H   0  0  0  0  0  0  0  0  0  0  0  0
   -0.7880   58.5519   73.4753 H   0  0  0  0  0  0  0  0  0  0  0  0
   -0.4972   56.1002   73.1530 H   0  0  0  0  0  0  0  0  0  0  0  0
    2.8217   56.1309   75.9243 H   0  0  0  0  0  0  0  0  0  0  0  0
    2.5301   58.5813   76.2337 H   0  0  0  0  0  0  0  0  0  0  0  0
    3.5669   54.1746   73.6366 H   0  0  0  0  0  0  0  0  0  0  0  0
    2.5662   53.3613   72.5566 H   0  0  0  0  0  0  0  0  0  0  0  0
   -0.4255   64.7505   76.2303 H   0  0  0  0  0  0  0  0  0  0  0  0
   -2.7861   65.7586   76.8921 H   0  0  0  0  0  0  0  0  0  0  0  0
   -4.6517   63.9393   76.9154 H   0  0  0  0  0  0  0  0  0  0  0  0
  2  1  1  0
  3  2  1  0
  4  3  2  0
  5  1  1  0
  5  4  1  0
  7  6  1  0
  8  7  2  0
  9  8  1  0
 10  9  2  0
 10  1  1  0
 11 10  1  0
 12  7  1  0
 12 11  2  0
 13  5  1  0
 14 13  2  0
 15 14  1  0
 16 15  2  0
 17 16  1  0
 18 17  2  0
 18 13  1  0
 19 16  1  0
 20 19  2  0
 21 19  2  0
 22 19  1  0
 23  3  1  0
 24 23  2  0
 25 24  1  0
 26 25  2  0
 27 26  1  0
 27 23  1  0
  1 28  1  1
  2 29  1  0
  2 30  1  0
  8 31  1  0
  9 32  1  0
 11 33  1  0
 12 34  1  0
 14 35  1  0
 15 36  1  0
 17 37  1  0
 18 38  1  0
 22 39  1  0
 22 40  1  0
 24 41  1  0
 25 42  1  0
 26 43  1  0
M  END
>  <score>  (4) 
-7.275

$$$$
=
     RDKit          3D

 43 46  0  0  0  0  0  0  0  0999 V2000
   -0.1090   60.9380   73.1230 C   0  0  1  0  0  0  0  0  0  0  0  0
    0.4180   62.0000   72.1580 C   0  0  0  0  0  0  0  0  0  0  0  0
    1.7310   61.3840   71.7680 C   0  0  0  0  0  0  0  0  0  0  0  0
    1.9020   60.1580   72.1670 N   0  0  0  0  0  0  0  0  0  0  0  0
    0.8030   59.8130   72.9020 N   0  0  0  0  0  0  0  0  0  0  0  0
   -0.1990   63.1210   78.9470 Br  0  0  0  0  0  0  0  0  0  0  0  0
   -0.1600   62.4520   77.1800 C   0  0  0  0  0  0  0  0  0  0  0  0
    1.0610   62.2610   76.5390 C   0  0  0  0  0  0  0  0  0  0  0  0
    1.0900   61.7680   75.2320 C   0  0  0  0  0  0  0  0  0  0  0  0
   -0.1020   61.4540   74.5560 C   0  0  0  0  0  0  0  0  0  0  0  0
   -1.3250   61.6620   75.2190 C   0  0  0  0  0  0  0  0  0  0  0  0
   -1.3530   62.1560   76.5260 C   0  0  0  0  0  0  0  0  0  0  0  0
    0.6250   58.5070   73.3530 C   0  0  0  0  0  0  0  0  0  0  0  0
   -0.5550   58.0810   73.9870 C   0  0  0  0  0  0  0  0  0  0  0  0
   -0.7190   56.7630   74.4330 C   0  0  0  0  0  0  0  0  0  0  0  0
    0.3080   55.8420   74.2430 C   0  0  0  0  0  0  0  0  0  0  0  0
    1.4990   56.2290   73.6320 C   0  0  0  0  0  0  0  0  0  0  0  0
    1.6440   57.5480   73.1910 C   0  0  0  0  0  0  0  0  0  0  0  0
    0.1200   54.1700   74.7960 S   0  0  0  0  0  6  0  0  0  0  0  0
    0.7390   53.2940   73.8300 O   0  0  0  0  0  0  0  0  0  0  0  0
    0.4240   54.1130   76.2080 O   0  0  0  0  0  0  0  0  0  0  0  0
   -1.5490   53.9670   74.6900 N   0  0  0  0  0  0  0  0  0  0  0  0
    2.7280   62.0640   70.9740 C   0  0  0  0  0  0  0  0  0  0  0  0
    3.7790   62.8390   71.4300 C   0  0  0  0  0  0  0  0  0  0  0  0
    4.5740   63.3630   70.3690 C   0  0  0  0  0  0  0  0  0  0  0  0
    4.1070   62.9690   69.1370 C   0  0  0  0  0  0  0  0  0  0  0  0
    2.7210   61.9770   69.2650 S   0  0  0  0  0  0  0  0  0  0  0  0
   -1.1572   60.6516   72.9518 H   0  0  0  0  0  0  0  0  0  0  0  0
   -0.2458   62.1259   71.2900 H   0  0  0  0  0  0  0  0  0  0  0  0
    0.4935   63.0112   72.5843 H   0  0  0  0  0  0  0  0  0  0  0  0
    2.0004   62.4976   77.0601 H   0  0  0  0  0  0  0  0  0  0  0  0
    2.0562   61.6240   74.7263 H   0  0  0  0  0  0  0  0  0  0  0  0
   -2.2693   61.4334   74.7033 H   0  0  0  0  0  0  0  0  0  0  0  0
   -2.3149   62.3106   77.0367 H   0  0  0  0  0  0  0  0  0  0  0  0
   -1.3720   58.8021   74.1371 H   0  0  0  0  0  0  0  0  0  0  0  0
   -1.6520   56.4580   74.9295 H   0  0  0  0  0  0  0  0  0  0  0  0
    2.3161   55.5049   73.4981 H   0  0  0  0  0  0  0  0  0  0  0  0
    2.5833   57.8461   72.7022 H   0  0  0  0  0  0  0  0  0  0  0  0
   -1.9498   53.9183   75.6376 H   0  0  0  0  0  0  0  0  0  0  0  0
   -1.9604   54.7642   74.1838 H   0  0  0  0  0  0  0  0  0  0  0  0
    3.9794   63.0301   72.4946 H   0  0  0  0  0  0  0  0  0  0  0  0
    5.4547   64.0050   70.5178 H   0  0  0  0  0  0  0  0  0  0  0  0
    4.5705   63.2580   68.1822 H   0  0  0  0  0  0  0  0  0  0  0  0
  2  1  1  0
  3  2  1  0
  4  3  2  0
  5  1  1  0
  5  4  1  0
  7  6  1  0
  8  7  2  0
  9  8  1  0
 10  9  2  0
 10  1  1  0
 11 10  1  0
 12  7  1  0
 12 11  2  0
 13  5  1  0
 14 13  2  0
 15 14  1  0
 16 15  2  0
 17 16  1  0
 18 17  2  0
 18 13  1  0
 19 16  1  0
 20 19  2  0
 21 19  2  0
 22 19  1  0
 23  3  1  0
 24 23  2  0
 25 24  1  0
 26 25  2  0
 27 26  1  0
 27 23  1  0
  1 28  1  6
  2 29  1  0
  2 30  1  0
  8 31  1  0
  9 32  1  0
 11 33  1  0
 12 34  1  0
 14 35  1  0
 15 36  1  0
 17 37  1  0
 18 38  1  0
 22 39  1  0
 22 40  1  0
 24 41  1  0
 25 42  1  0
 26 43  1  0
M  END
>  <score>  (5) 
-7.129

$$$$
=
     RDKit          3D

 43 46  0  0  0  0  0  0  0  0999 V2000
    2.0740   60.6220   74.3250 C   0  0  1  0  0  0  0  0  0  0  0  0
    3.2790   61.1180   73.5280 C   0  0  0  0  0  0  0  0  0  0  0  0
    2.5860   61.7760   72.3690 C   0  0  0  0  0  0  0  0  0  0  0  0
    1.2970   61.8940   72.4960 N   0  0  0  0  0  0  0  0  0  0  0  0
    0.9500   61.3040   73.6790 N   0  0  0  0  0  0  0  0  0  0  0  0
    1.5540   54.4310   74.0200 Br  0  0  0  0  0  0  0  0  0  0  0  0
    1.7220   56.3110   74.1220 C   0  0  0  0  0  0  0  0  0  0  0  0
    2.0720   56.9100   75.3290 C   0  0  0  0  0  0  0  0  0  0  0  0
    2.1940   58.2990   75.4050 C   0  0  0  0  0  0  0  0  0  0  0  0
    1.9740   59.1030   74.2720 C   0  0  0  0  0  0  0  0  0  0  0  0
    1.6120   58.4780   73.0660 C   0  0  0  0  0  0  0  0  0  0  0  0
    1.4900   57.0880   72.9910 C   0  0  0  0  0  0  0  0  0  0  0  0
   -0.3520   61.3910   74.1670 C   0  0  0  0  0  0  0  0  0  0  0  0
   -1.4530   60.8480   73.4810 C   0  0  0  0  0  0  0  0  0  0  0  0
   -2.7560   60.9430   73.9860 C   0  0  0  0  0  0  0  0  0  0  0  0
   -2.9770   61.5880   75.2010 C   0  0  0  0  0  0  0  0  0  0  0  0
   -1.9140   62.1510   75.9030 C   0  0  0  0  0  0  0  0  0  0  0  0
   -0.6190   62.0450   75.3850 C   0  0  0  0  0  0  0  0  0  0  0  0
   -4.6160   61.7160   75.8580 S   0  0  0  0  0  6  0  0  0  0  0  0
   -5.5020   60.9220   75.0390 O   0  0  0  0  0  0  0  0  0  0  0  0
   -4.5510   61.5800   77.2950 O   0  0  0  0  0  0  0  0  0  0  0  0
   -4.9640   63.3410   75.5780 N   0  0  0  0  0  0  0  0  0  0  0  0
    3.2780   62.2840   71.2080 C   0  0  0  0  0  0  0  0  0  0  0  0
    4.5740   62.7640   71.1450 C   0  0  0  0  0  0  0  0  0  0  0  0
    4.9390   63.1870   69.8350 C   0  0  0  0  0  0  0  0  0  0  0  0
    3.9120   63.0160   68.9360 C   0  0  0  0  0  0  0  0  0  0  0  0
    2.5220   62.3490   69.6740 S   0  0  0  0  0  0  0  0  0  0  0  0
    2.1216   60.8452   75.4011 H   0  0  0  0  0  0  0  0  0  0  0  0
    3.8793   61.8374   74.1043 H   0  0  0  0  0  0  0  0  0  0  0  0
    3.9984   60.3344   73.2481 H   0  0  0  0  0  0  0  0  0  0  0  0
    2.2519   56.2909   76.2203 H   0  0  0  0  0  0  0  0  0  0  0  0
    2.4652   58.7696   76.3615 H   0  0  0  0  0  0  0  0  0  0  0  0
    1.4227   59.0898   72.1716 H   0  0  0  0  0  0  0  0  0  0  0  0
    1.2114   56.6093   72.0406 H   0  0  0  0  0  0  0  0  0  0  0  0
   -1.2865   60.3350   72.5223 H   0  0  0  0  0  0  0  0  0  0  0  0
   -3.5993   60.5112   73.4270 H   0  0  0  0  0  0  0  0  0  0  0  0
   -2.0909   62.6735   76.8547 H   0  0  0  0  0  0  0  0  0  0  0  0
    0.2172   62.4865   75.9470 H   0  0  0  0  0  0  0  0  0  0  0  0
   -5.0687   63.8298   76.4786 H   0  0  0  0  0  0  0  0  0  0  0  0
   -4.1957   63.7693   75.0422 H   0  0  0  0  0  0  0  0  0  0  0  0
    5.2489   62.8135   72.0122 H   0  0  0  0  0  0  0  0  0  0  0  0
    5.9241   63.6008   69.5735 H   0  0  0  0  0  0  0  0  0  0  0  0
    3.9775   63.2773   67.8695 H   0  0  0  0  0  0  0  0  0  0  0  0
  2  1  1  0
  3  2  1  0
  4  3  2  0
  5  1  1  0
  5  4  1  0
  7  6  1  0
  8  7  2  0
  9  8  1  0
 10  9  2  0
 10  1  1  0
 11 10  1  0
 12  7  1  0
 12 11  2  0
 13  5  1  0
 14 13  2  0
 15 14  1  0
 16 15  2  0
 17 16  1  0
 18 17  2  0
 18 13  1  0
 19 16  1  0
 20 19  2  0
 21 19  2  0
 22 19  1  0
 23  3  1  0
 24 23  2  0
 25 24  1  0
 26 25  2  0
 27 26  1  0
 27 23  1  0
  1 28  1  1
  2 29  1  0
  2 30  1  0
  8 31  1  0
  9 32  1  0
 11 33  1  0
 12 34  1  0
 14 35  1  0
 15 36  1  0
 17 37  1  0
 18 38  1  0
 22 39  1  0
 22 40  1  0
 24 41  1  0
 25 42  1  0
 26 43  1  0
M  END
>  <score>  (6) 
-7.104

$$$$
=
     RDKit          3D

 43 46  0  0  0  0  0  0  0  0999 V2000
    3.3930   58.5170   75.1590 C   0  0  1  0  0  0  0  0  0  0  0  0
    3.0260   57.0830   75.5390 C   0  0  0  0  0  0  0  0  0  0  0  0
    2.0280   56.7640   74.4630 C   0  0  0  0  0  0  0  0  0  0  0  0
    1.9500   57.6450   73.5090 N   0  0  0  0  0  0  0  0  0  0  0  0
    2.8030   58.6650   73.8280 N   0  0  0  0  0  0  0  0  0  0  0  0
    1.1800   62.4620   79.4280 Br  0  0  0  0  0  0  0  0  0  0  0  0
    1.8490   61.2720   78.1210 C   0  0  0  0  0  0  0  0  0  0  0  0
    1.2960   61.2640   76.8440 C   0  0  0  0  0  0  0  0  0  0  0  0
    1.7890   60.3840   75.8790 C   0  0  0  0  0  0  0  0  0  0  0  0
    2.8470   59.5070   76.1790 C   0  0  0  0  0  0  0  0  0  0  0  0
    3.3860   59.5250   77.4780 C   0  0  0  0  0  0  0  0  0  0  0  0
    2.8900   60.4060   78.4440 C   0  0  0  0  0  0  0  0  0  0  0  0
    3.0480   59.6990   72.9270 C   0  0  0  0  0  0  0  0  0  0  0  0
    2.0250   60.3030   72.1750 C   0  0  0  0  0  0  0  0  0  0  0  0
    2.2880   61.3430   71.2740 C   0  0  0  0  0  0  0  0  0  0  0  0
    3.5940   61.8010   71.1160 C   0  0  0  0  0  0  0  0  0  0  0  0
    4.6370   61.2180   71.8320 C   0  0  0  0  0  0  0  0  0  0  0  0
    4.3560   60.1820   72.7290 C   0  0  0  0  0  0  0  0  0  0  0  0
    3.9480   63.1170   69.9850 S   0  0  0  0  0  6  0  0  0  0  0  0
    5.2060   63.7180   70.3580 O   0  0  0  0  0  0  0  0  0  0  0  0
    3.6690   62.6600   68.6420 O   0  0  0  0  0  0  0  0  0  0  0  0
    2.7190   64.2110   70.3490 N   0  0  0  0  0  0  0  0  0  0  0  0
    1.2320   55.5590   74.4430 C   0  0  0  0  0  0  0  0  0  0  0  0
    1.6290   54.2970   74.0400 C   0  0  0  0  0  0  0  0  0  0  0  0
    0.5860   53.3330   74.1510 C   0  0  0  0  0  0  0  0  0  0  0  0
   -0.5750   53.8880   74.6360 C   0  0  0  0  0  0  0  0  0  0  0  0
   -0.4010   55.5580   74.9540 S   0  0  0  0  0  0  0  0  0  0  0  0
    4.4743   58.7189   75.1493 H   0  0  0  0  0  0  0  0  0  0  0  0
    3.8987   56.4148   75.4950 H   0  0  0  0  0  0  0  0  0  0  0  0
    2.6492   56.9620   76.5653 H   0  0  0  0  0  0  0  0  0  0  0  0
    0.4723   61.9495   76.5956 H   0  0  0  0  0  0  0  0  0  0  0  0
    1.3451   60.3763   74.8726 H   0  0  0  0  0  0  0  0  0  0  0  0
    4.2061   58.8390   77.7367 H   0  0  0  0  0  0  0  0  0  0  0  0
    3.3210   60.4147   79.4560 H   0  0  0  0  0  0  0  0  0  0  0  0
    0.9906   59.9495   72.2974 H   0  0  0  0  0  0  0  0  0  0  0  0
    1.4689   61.7948   70.6953 H   0  0  0  0  0  0  0  0  0  0  0  0
    5.6704   61.5685   71.6936 H   0  0  0  0  0  0  0  0  0  0  0  0
    5.1825   59.7305   73.2974 H   0  0  0  0  0  0  0  0  0  0  0  0
    2.6253   64.2944   71.3713 H   0  0  0  0  0  0  0  0  0  0  0  0
    2.9494   65.1318   69.9491 H   0  0  0  0  0  0  0  0  0  0  0  0
    2.6396   54.0632   73.6738 H   0  0  0  0  0  0  0  0  0  0  0  0
    0.6961   52.2723   73.8812 H   0  0  0  0  0  0  0  0  0  0  0  0
   -1.5051   53.3240   74.7998 H   0  0  0  0  0  0  0  0  0  0  0  0
  2  1  1  0
  3  2  1  0
  4  3  2  0
  5  1  1  0
  5  4  1  0
  7  6  1  0
  8  7  2  0
  9  8  1  0
 10  9  2  0
 10  1  1  0
 11 10  1  0
 12  7  1  0
 12 11  2  0
 13  5  1  0
 14 13  2  0
 15 14  1  0
 16 15  2  0
 17 16  1  0
 18 17  2  0
 18 13  1  0
 19 16  1  0
 20 19  2  0
 21 19  2  0
 22 19  1  0
 23  3  1  0
 24 23  2  0
 25 24  1  0
 26 25  2  0
 27 26  1  0
 27 23  1  0
  1 28  1  6
  2 29  1  0
  2 30  1  0
  8 31  1  0
  9 32  1  0
 11 33  1  0
 12 34  1  0
 14 35  1  0
 15 36  1  0
 17 37  1  0
 18 38  1  0
 22 39  1  0
 22 40  1  0
 24 41  1  0
 25 42  1  0
 26 43  1  0
M  END
>  <score>  (7) 
-7.062

$$$$
=
     RDKit          3D

 43 46  0  0  0  0  0  0  0  0999 V2000
   -0.0540   59.3420   75.7440 C   0  0  1  0  0  0  0  0  0  0  0  0
   -1.4280   58.8940   76.2400 C   0  0  0  0  0  0  0  0  0  0  0  0
   -2.2790   59.2720   75.0620 C   0  0  0  0  0  0  0  0  0  0  0  0
   -1.6180   59.6340   74.0020 N   0  0  0  0  0  0  0  0  0  0  0  0
   -0.2900   59.6100   74.3240 N   0  0  0  0  0  0  0  0  0  0  0  0
    1.9560   64.2290   79.0250 Br  0  0  0  0  0  0  0  0  0  0  0  0
    1.3420   62.7530   78.0180 C   0  0  0  0  0  0  0  0  0  0  0  0
    0.3240   62.9260   77.0850 C   0  0  0  0  0  0  0  0  0  0  0  0
   -0.1310   61.8350   76.3420 C   0  0  0  0  0  0  0  0  0  0  0  0
    0.4340   60.5590   76.5190 C   0  0  0  0  0  0  0  0  0  0  0  0
    1.4550   60.4040   77.4730 C   0  0  0  0  0  0  0  0  0  0  0  0
    1.9090   61.4970   78.2170 C   0  0  0  0  0  0  0  0  0  0  0  0
    0.6850   59.8160   73.3500 C   0  0  0  0  0  0  0  0  0  0  0  0
    0.8110   61.0290   72.6520 C   0  0  0  0  0  0  0  0  0  0  0  0
    1.7970   61.2200   71.6760 C   0  0  0  0  0  0  0  0  0  0  0  0
    2.6870   60.1870   71.3870 C   0  0  0  0  0  0  0  0  0  0  0  0
    2.5860   58.9650   72.0470 C   0  0  0  0  0  0  0  0  0  0  0  0
    1.5950   58.7930   73.0200 C   0  0  0  0  0  0  0  0  0  0  0  0
    3.9440   60.4090   70.1600 S   0  0  0  0  0  6  0  0  0  0  0  0
    3.5410   61.4800   69.2790 O   0  0  0  0  0  0  0  0  0  0  0  0
    5.2340   60.3770   70.8090 O   0  0  0  0  0  0  0  0  0  0  0  0
    3.8370   58.9610   69.3040 N   0  0  0  0  0  0  0  0  0  0  0  0
   -3.7220   59.2080   75.0650 C   0  0  0  0  0  0  0  0  0  0  0  0
   -4.6070   60.1760   74.6250 C   0  0  0  0  0  0  0  0  0  0  0  0
   -5.9690   59.7820   74.7740 C   0  0  0  0  0  0  0  0  0  0  0  0
   -6.0810   58.5250   75.3210 C   0  0  0  0  0  0  0  0  0  0  0  0
   -4.5540   57.8310   75.6490 S   0  0  0  0  0  0  0  0  0  0  0  0
    0.7439   58.5992   75.8910 H   0  0  0  0  0  0  0  0  0  0  0  0
   -1.4576   57.8113   76.4319 H   0  0  0  0  0  0  0  0  0  0  0  0
   -1.7401   59.3427   77.1946 H   0  0  0  0  0  0  0  0  0  0  0  0
   -0.1213   63.9203   76.9332 H   0  0  0  0  0  0  0  0  0  0  0  0
   -0.9402   61.9748   75.6101 H   0  0  0  0  0  0  0  0  0  0  0  0
    1.9014   59.4119   77.6358 H   0  0  0  0  0  0  0  0  0  0  0  0
    2.7118   61.3652   78.9574 H   0  0  0  0  0  0  0  0  0  0  0  0
    0.1161   61.8511   72.8784 H   0  0  0  0  0  0  0  0  0  0  0  0
    1.8686   62.1786   71.1412 H   0  0  0  0  0  0  0  0  0  0  0  0
    3.2774   58.1441   71.8062 H   0  0  0  0  0  0  0  0  0  0  0  0
    1.5246   57.8282   73.5437 H   0  0  0  0  0  0  0  0  0  0  0  0
    3.7789   58.1742   69.9662 H   0  0  0  0  0  0  0  0  0  0  0  0
    2.9947   58.9739   68.7114 H   0  0  0  0  0  0  0  0  0  0  0  0
   -4.2941   61.1438   74.2060 H   0  0  0  0  0  0  0  0  0  0  0  0
   -6.8267   60.4077   74.4863 H   0  0  0  0  0  0  0  0  0  0  0  0
   -7.0399   58.0255   75.5234 H   0  0  0  0  0  0  0  0  0  0  0  0
  2  1  1  0
  3  2  1  0
  4  3  2  0
  5  1  1  0
  5  4  1  0
  7  6  1  0
  8  7  2  0
  9  8  1  0
 10  9  2  0
 10  1  1  0
 11 10  1  0
 12  7  1  0
 12 11  2  0
 13  5  1  0
 14 13  2  0
 15 14  1  0
 16 15  2  0
 17 16  1  0
 18 17  2  0
 18 13  1  0
 19 16  1  0
 20 19  2  0
 21 19  2  0
 22 19  1  0
 23  3  1  0
 24 23  2  0
 25 24  1  0
 26 25  2  0
 27 26  1  0
 27 23  1  0
  1 28  1  6
  2 29  1  0
  2 30  1  0
  8 31  1  0
  9 32  1  0
 11 33  1  0
 12 34  1  0
 14 35  1  0
 15 36  1  0
 17 37  1  0
 18 38  1  0
 22 39  1  0
 22 40  1  0
 24 41  1  0
 25 42  1  0
 26 43  1  0
M  END
>  <score>  (8) 
-7.057

$$$$
=
     RDKit          3D

 43 46  0  0  0  0  0  0  0  0999 V2000
    1.1850   59.8650   74.4950 C   0  0  1  0  0  0  0  0  0  0  0  0
    2.3860   60.4820   73.7810 C   0  0  0  0  0  0  0  0  0  0  0  0
    1.7480   60.9000   72.4870 C   0  0  0  0  0  0  0  0  0  0  0  0
    0.4510   60.8080   72.4610 N   0  0  0  0  0  0  0  0  0  0  0  0
    0.0570   60.2810   73.6590 N   0  0  0  0  0  0  0  0  0  0  0  0
    1.8880   53.7090   75.0490 Br  0  0  0  0  0  0  0  0  0  0  0  0
    1.6670   55.5770   74.8690 C   0  0  0  0  0  0  0  0  0  0  0  0
    1.5190   56.1390   73.6040 C   0  0  0  0  0  0  0  0  0  0  0  0
    1.3580   57.5190   73.4710 C   0  0  0  0  0  0  0  0  0  0  0  0
    1.3340   58.3530   74.6040 C   0  0  0  0  0  0  0  0  0  0  0  0
    1.4930   57.7660   75.8720 C   0  0  0  0  0  0  0  0  0  0  0  0
    1.6560   56.3840   76.0040 C   0  0  0  0  0  0  0  0  0  0  0  0
   -1.2930   60.1900   73.9900 C   0  0  0  0  0  0  0  0  0  0  0  0
   -2.2130   61.2110   73.6940 C   0  0  0  0  0  0  0  0  0  0  0  0
   -3.5680   61.1040   74.0320 C   0  0  0  0  0  0  0  0  0  0  0  0
   -4.0270   59.9570   74.6750 C   0  0  0  0  0  0  0  0  0  0  0  0
   -3.1440   58.9290   74.9980 C   0  0  0  0  0  0  0  0  0  0  0  0
   -1.7950   59.0520   74.6500 C   0  0  0  0  0  0  0  0  0  0  0  0
   -5.7370   59.8000   75.1080 S   0  0  0  0  0  6  0  0  0  0  0  0
   -5.9420   60.4160   76.3980 O   0  0  0  0  0  0  0  0  0  0  0  0
   -6.5390   60.1270   73.9520 O   0  0  0  0  0  0  0  0  0  0  0  0
   -5.8840   58.1320   75.2980 N   0  0  0  0  0  0  0  0  0  0  0  0
    2.4910   61.4070   71.3570 C   0  0  0  0  0  0  0  0  0  0  0  0
    3.1210   60.6750   70.3680 C   0  0  0  0  0  0  0  0  0  0  0  0
    3.7640   61.4990   69.4000 C   0  0  0  0  0  0  0  0  0  0  0  0
    3.6030   62.8370   69.6790 C   0  0  0  0  0  0  0  0  0  0  0  0
    2.6830   63.0880   71.0970 S   0  0  0  0  0  0  0  0  0  0  0  0
    1.0622   60.1935   75.5376 H   0  0  0  0  0  0  0  0  0  0  0  0
    2.7880   61.3443   74.3331 H   0  0  0  0  0  0  0  0  0  0  0  0
    3.2496   59.8097   73.6708 H   0  0  0  0  0  0  0  0  0  0  0  0
    1.5289   55.4967   72.7110 H   0  0  0  0  0  0  0  0  0  0  0  0
    1.2486   57.9596   72.4691 H   0  0  0  0  0  0  0  0  0  0  0  0
    1.4891   58.4014   76.7699 H   0  0  0  0  0  0  0  0  0  0  0  0
    1.7752   55.9353   77.0012 H   0  0  0  0  0  0  0  0  0  0  0  0
   -1.8590   62.1186   73.1831 H   0  0  0  0  0  0  0  0  0  0  0  0
   -4.2649   61.9203   73.7913 H   0  0  0  0  0  0  0  0  0  0  0  0
   -3.5038   58.0306   75.5209 H   0  0  0  0  0  0  0  0  0  0  0  0
   -1.1040   58.2334   74.8999 H   0  0  0  0  0  0  0  0  0  0  0  0
   -5.9043   57.9012   76.3016 H   0  0  0  0  0  0  0  0  0  0  0  0
   -6.7565   57.8115   74.8543 H   0  0  0  0  0  0  0  0  0  0  0  0
    3.1254   59.5756   70.3323 H   0  0  0  0  0  0  0  0  0  0  0  0
    4.3217   61.1125   68.5342 H   0  0  0  0  0  0  0  0  0  0  0  0
    4.0173   63.6484   69.0625 H   0  0  0  0  0  0  0  0  0  0  0  0
  2  1  1  0
  3  2  1  0
  4  3  2  0
  5  1  1  0
  5  4  1  0
  7  6  1  0
  8  7  2  0
  9  8  1  0
 10  9  2  0
 10  1  1  0
 11 10  1  0
 12  7  1  0
 12 11  2  0
 13  5  1  0
 14 13  2  0
 15 14  1  0
 16 15  2  0
 17 16  1  0
 18 17  2  0
 18 13  1  0
 19 16  1  0
 20 19  2  0
 21 19  2  0
 22 19  1  0
 23  3  1  0
 24 23  2  0
 25 24  1  0
 26 25  2  0
 27 26  1  0
 27 23  1  0
  1 28  1  1
  2 29  1  0
  2 30  1  0
  8 31  1  0
  9 32  1  0
 11 33  1  0
 12 34  1  0
 14 35  1  0
 15 36  1  0
 17 37  1  0
 18 38  1  0
 22 39  1  0
 22 40  1  0
 24 41  1  0
 25 42  1  0
 26 43  1  0
M  END
>  <score>  (9) 
-6.731

$$$$
