=
     RDKit          3D

 22 23  0  0  0  0  0  0  0  0999 V2000
    6.0170   70.4250   66.4770 Cl  0  0  0  0  0  0  0  0  0  0  0  0
    4.4630   69.8160   66.8710 C   0  0  0  0  0  0  0  0  0  0  0  0
    3.8500   70.1900   68.0630 C   0  0  0  0  0  0  0  0  0  0  0  0
    2.5790   69.6930   68.3850 C   0  0  0  0  0  0  0  0  0  0  0  0
    1.9070   68.8170   67.5220 C   0  0  0  0  0  0  0  0  0  0  0  0
    2.5470   68.4660   66.3430 C   0  0  0  0  0  0  0  0  0  0  0  0
    3.8170   68.9500   65.9980 C   0  0  0  0  0  0  0  0  0  0  0  0
    1.7240   67.3780   65.2570 S   0  0  0  0  0  6  0  0  0  0  0  0
    1.4640   68.1370   64.0560 O   0  0  0  0  0  0  0  0  0  0  0  0
    2.5240   66.1740   65.2180 O   0  0  0  0  0  0  0  0  0  0  0  0
    0.3290   67.0490   65.9720 N   0  0  0  0  0  0  0  0  0  0  0  0
   -0.0280   67.5370   67.1320 C   0  0  0  0  0  0  0  0  0  0  0  0
    0.6770   68.3650   67.8840 N   0  0  0  0  0  4  0  0  0  0  0  0
   -1.3560   67.1320   67.6530 C   0  0  0  0  0  0  0  0  0  0  0  0
    4.3629   70.8760   68.7531 H   0  0  0  0  0  0  0  0  0  0  0  0
    2.1023   69.9953   69.3291 H   0  0  0  0  0  0  0  0  0  0  0  0
    4.2931   68.6493   65.0531 H   0  0  0  0  0  0  0  0  0  0  0  0
   -0.3253   66.4161   65.4902 H   0  0  0  0  0  0  0  0  0  0  0  0
    0.2784   68.6802   68.7799 H   0  0  0  0  0  0  0  0  0  0  0  0
   -1.3358   67.1381   68.7528 H   0  0  0  0  0  0  0  0  0  0  0  0
   -2.1206   67.8378   67.2963 H   0  0  0  0  0  0  0  0  0  0  0  0
   -1.5966   66.1196   67.2963 H   0  0  0  0  0  0  0  0  0  0  0  0
  2  1  1  0
  3  2  2  0
  4  3  1  0
  5  4  2  0
  6  5  1  0
  7  6  2  0
  7  2  1  0
  8  6  1  0
  9  8  2  0
 10  8  2  0
 11  8  1  0
 12 11  1  0
 13 12  2  0
 13  5  1  0
 14 12  1  0
  3 15  1  0
  4 16  1  0
  7 17  1  0
 11 18  1  0
 13 19  1  0
 14 20  1  0
 14 21  1  0
 14 22  1  0
M  CHG  1  13   1
M  END
>  <score>  (1) 
-8.072

$$$$
=
     RDKit          3D

 22 23  0  0  0  0  0  0  0  0999 V2000
    3.8420   70.8560   69.5020 Cl  0  0  0  0  0  0  0  0  0  0  0  0
    4.0710   70.1760   67.9440 C   0  0  0  0  0  0  0  0  0  0  0  0
    5.2740   70.3690   67.2700 C   0  0  0  0  0  0  0  0  0  0  0  0
    5.4620   69.8120   65.9970 C   0  0  0  0  0  0  0  0  0  0  0  0
    4.4530   69.0590   65.3830 C   0  0  0  0  0  0  0  0  0  0  0  0
    3.2680   68.8870   66.0830 C   0  0  0  0  0  0  0  0  0  0  0  0
    3.0560   69.4320   67.3570 C   0  0  0  0  0  0  0  0  0  0  0  0
    2.0030   67.9510   65.3340 S   0  0  0  0  0  6  0  0  0  0  0  0
    1.8320   66.7790   66.1610 O   0  0  0  0  0  0  0  0  0  0  0  0
    0.9090   68.8690   65.1090 O   0  0  0  0  0  0  0  0  0  0  0  0
    2.5980   67.5000   63.9170 N   0  0  0  0  0  0  0  0  0  0  0  0
    3.7940   67.8210   63.4940 C   0  0  0  0  0  0  0  0  0  0  0  0
    4.6880   68.5420   64.1470 N   0  0  0  0  0  4  0  0  0  0  0  0
    4.1920   67.3190   62.1560 C   0  0  0  0  0  0  0  0  0  0  0  0
    6.0771   70.9586   67.7363 H   0  0  0  0  0  0  0  0  0  0  0  0
    6.4162   69.9687   65.4726 H   0  0  0  0  0  0  0  0  0  0  0  0
    2.1027   69.2732   67.8823 H   0  0  0  0  0  0  0  0  0  0  0  0
    2.0048   66.9238   63.3030 H   0  0  0  0  0  0  0  0  0  0  0  0
    5.5998   68.7198   63.7022 H   0  0  0  0  0  0  0  0  0  0  0  0
    4.8715   66.4619   62.2732 H   0  0  0  0  0  0  0  0  0  0  0  0
    3.2960   67.0034   61.6014 H   0  0  0  0  0  0  0  0  0  0  0  0
    4.7036   68.1194   61.6014 H   0  0  0  0  0  0  0  0  0  0  0  0
  2  1  1  0
  3  2  2  0
  4  3  1  0
  5  4  2  0
  6  5  1  0
  7  6  2  0
  7  2  1  0
  8  6  1  0
  9  8  2  0
 10  8  2  0
 11  8  1  0
 12 11  1  0
 13 12  2  0
 13  5  1  0
 14 12  1  0
  3 15  1  0
  4 16  1  0
  7 17  1  0
 11 18  1  0
 13 19  1  0
 14 20  1  0
 14 21  1  0
 14 22  1  0
M  CHG  1  13   1
M  END
>  <score>  (2) 
-7.69

$$$$
=
     RDKit          3D

 22 23  0  0  0  0  0  0  0  0999 V2000
    5.4310   68.6600   62.4920 Cl  0  0  0  0  0  0  0  0  0  0  0  0
    4.0520   68.6790   63.5110 C   0  0  0  0  0  0  0  0  0  0  0  0
    4.2060   68.6030   64.8930 C   0  0  0  0  0  0  0  0  0  0  0  0
    3.0800   68.6190   65.7270 C   0  0  0  0  0  0  0  0  0  0  0  0
    1.7880   68.7090   65.1920 C   0  0  0  0  0  0  0  0  0  0  0  0
    1.6710   68.7830   63.8130 C   0  0  0  0  0  0  0  0  0  0  0  0
    2.7820   68.7700   62.9580 C   0  0  0  0  0  0  0  0  0  0  0  0
    0.0710   68.8970   63.1310 S   0  0  0  0  0  6  0  0  0  0  0  0
    0.0010   70.1920   62.4930 O   0  0  0  0  0  0  0  0  0  0  0  0
   -0.1260   67.6820   62.3720 O   0  0  0  0  0  0  0  0  0  0  0  0
   -0.9220   68.8870   64.3880 N   0  0  0  0  0  0  0  0  0  0  0  0
   -0.5220   68.8020   65.6310 C   0  0  0  0  0  0  0  0  0  0  0  0
    0.7300   68.7200   66.0470 N   0  0  0  0  0  4  0  0  0  0  0  0
   -1.5720   68.8070   66.6780 C   0  0  0  0  0  0  0  0  0  0  0  0
    5.2127   68.5303   65.3304 H   0  0  0  0  0  0  0  0  0  0  0  0
    3.2122   68.5601   66.8174 H   0  0  0  0  0  0  0  0  0  0  0  0
    2.6496   68.8309   61.8677 H   0  0  0  0  0  0  0  0  0  0  0  0
   -1.9340   68.9512   64.2073 H   0  0  0  0  0  0  0  0  0  0  0  0
    0.9118   68.6621   67.0592 H   0  0  0  0  0  0  0  0  0  0  0  0
   -1.0994   68.8047   67.6713 H   0  0  0  0  0  0  0  0  0  0  0  0
   -2.1935   69.7081   66.5697 H   0  0  0  0  0  0  0  0  0  0  0  0
   -2.2021   67.9118   66.5697 H   0  0  0  0  0  0  0  0  0  0  0  0
  2  1  1  0
  3  2  2  0
  4  3  1  0
  5  4  2  0
  6  5  1  0
  7  6  2  0
  7  2  1  0
  8  6  1  0
  9  8  2  0
 10  8  2  0
 11  8  1  0
 12 11  1  0
 13 12  2  0
 13  5  1  0
 14 12  1  0
  3 15  1  0
  4 16  1  0
  7 17  1  0
 11 18  1  0
 13 19  1  0
 14 20  1  0
 14 21  1  0
 14 22  1  0
M  CHG  1  13   1
M  END
>  <score>  (3) 
-7.674

$$$$
=
     RDKit          3D

 22 23  0  0  0  0  0  0  0  0999 V2000
    4.3860   68.6460   62.0540 Cl  0  0  0  0  0  0  0  0  0  0  0  0
    2.7940   68.7240   62.6870 C   0  0  0  0  0  0  0  0  0  0  0  0
    1.7260   69.0340   61.8490 C   0  0  0  0  0  0  0  0  0  0  0  0
    0.4240   69.0980   62.3660 C   0  0  0  0  0  0  0  0  0  0  0  0
    0.1740   68.8550   63.7230 C   0  0  0  0  0  0  0  0  0  0  0  0
    1.2610   68.5490   64.5280 C   0  0  0  0  0  0  0  0  0  0  0  0
    2.5710   68.4780   64.0350 C   0  0  0  0  0  0  0  0  0  0  0  0
    0.9670   68.2420   66.2190 S   0  0  0  0  0  6  0  0  0  0  0  0
    1.3190   66.8580   66.4390 O   0  0  0  0  0  0  0  0  0  0  0  0
    1.6350   69.3030   66.9380 O   0  0  0  0  0  0  0  0  0  0  0  0
   -0.6160   68.4080   66.4060 N   0  0  0  0  0  0  0  0  0  0  0  0
   -1.4350   68.7170   65.4340 C   0  0  0  0  0  0  0  0  0  0  0  0
   -1.1080   68.9310   64.1710 N   0  0  0  0  0  4  0  0  0  0  0  0
   -2.8740   68.8300   65.7770 C   0  0  0  0  0  0  0  0  0  0  0  0
    1.9037   69.2288   60.7811 H   0  0  0  0  0  0  0  0  0  0  0  0
   -0.4135   69.3426   61.6961 H   0  0  0  0  0  0  0  0  0  0  0  0
    3.4082   68.2316   64.7047 H   0  0  0  0  0  0  0  0  0  0  0  0
   -1.0114   68.2630   67.3460 H   0  0  0  0  0  0  0  0  0  0  0  0
   -1.8535   69.1645   63.4998 H   0  0  0  0  0  0  0  0  0  0  0  0
   -2.9906   68.8392   66.8708 H   0  0  0  0  0  0  0  0  0  0  0  0
   -3.2788   69.7627   65.3573 H   0  0  0  0  0  0  0  0  0  0  0  0
   -3.4195   67.9719   65.3573 H   0  0  0  0  0  0  0  0  0  0  0  0
  2  1  1  0
  3  2  2  0
  4  3  1  0
  5  4  2  0
  6  5  1  0
  7  6  2  0
  7  2  1  0
  8  6  1  0
  9  8  2  0
 10  8  2  0
 11  8  1  0
 12 11  1  0
 13 12  2  0
 13  5  1  0
 14 12  1  0
  3 15  1  0
  4 16  1  0
  7 17  1  0
 11 18  1  0
 13 19  1  0
 14 20  1  0
 14 21  1  0
 14 22  1  0
M  CHG  1  13   1
M  END
>  <score>  (4) 
-7.667

$$$$
=
     RDKit          3D

 22 23  0  0  0  0  0  0  0  0999 V2000
    3.8200   67.6750   61.6800 Cl  0  0  0  0  0  0  0  0  0  0  0  0
    3.9030   68.3440   63.2580 C   0  0  0  0  0  0  0  0  0  0  0  0
    5.0040   69.1070   63.6340 C   0  0  0  0  0  0  0  0  0  0  0  0
    5.0720   69.6550   64.9230 C   0  0  0  0  0  0  0  0  0  0  0  0
    4.0430   69.4450   65.8500 C   0  0  0  0  0  0  0  0  0  0  0  0
    2.9610   68.6800   65.4420 C   0  0  0  0  0  0  0  0  0  0  0  0
    2.8690   68.1230   64.1590 C   0  0  0  0  0  0  0  0  0  0  0  0
    1.6710   68.4110   66.5830 S   0  0  0  0  0  6  0  0  0  0  0  0
    0.5070   69.0660   66.0300 O   0  0  0  0  0  0  0  0  0  0  0  0
    1.6670   66.9910   66.8520 O   0  0  0  0  0  0  0  0  0  0  0  0
    2.1170   69.1880   67.9110 N   0  0  0  0  0  0  0  0  0  0  0  0
    3.2380   69.8530   68.0230 C   0  0  0  0  0  0  0  0  0  0  0  0
    4.1600   69.9990   67.0870 N   0  0  0  0  0  4  0  0  0  0  0  0
    3.4990   70.5180   69.3230 C   0  0  0  0  0  0  0  0  0  0  0  0
    5.8220   69.2806   62.9194 H   0  0  0  0  0  0  0  0  0  0  0  0
    5.9458   70.2583   65.2103 H   0  0  0  0  0  0  0  0  0  0  0  0
    1.9940   67.5219   63.8709 H   0  0  0  0  0  0  0  0  0  0  0  0
    1.4846   69.1625   68.7236 H   0  0  0  0  0  0  0  0  0  0  0  0
    5.0003   70.5542   67.3028 H   0  0  0  0  0  0  0  0  0  0  0  0
    3.2315   69.8363   70.1438 H   0  0  0  0  0  0  0  0  0  0  0  0
    4.5656   70.7773   69.3946 H   0  0  0  0  0  0  0  0  0  0  0  0
    2.8935   71.4335   69.3946 H   0  0  0  0  0  0  0  0  0  0  0  0
  2  1  1  0
  3  2  2  0
  4  3  1  0
  5  4  2  0
  6  5  1  0
  7  6  2  0
  7  2  1  0
  8  6  1  0
  9  8  2  0
 10  8  2  0
 11  8  1  0
 12 11  1  0
 13 12  2  0
 13  5  1  0
 14 12  1  0
  3 15  1  0
  4 16  1  0
  7 17  1  0
 11 18  1  0
 13 19  1  0
 14 20  1  0
 14 21  1  0
 14 22  1  0
M  CHG  1  13   1
M  END
>  <score>  (5) 
-7.439

$$$$
=
     RDKit          3D

 22 23  0  0  0  0  0  0  0  0999 V2000
    7.0650   69.8470   67.0100 Cl  0  0  0  0  0  0  0  0  0  0  0  0
    5.5720   69.5710   66.2130 C   0  0  0  0  0  0  0  0  0  0  0  0
    4.3720   69.7530   66.8960 C   0  0  0  0  0  0  0  0  0  0  0  0
    3.1520   69.5280   66.2440 C   0  0  0  0  0  0  0  0  0  0  0  0
    3.1140   69.1180   64.9050 C   0  0  0  0  0  0  0  0  0  0  0  0
    4.3270   68.9460   64.2550 C   0  0  0  0  0  0  0  0  0  0  0  0
    5.5600   69.1660   64.8840 C   0  0  0  0  0  0  0  0  0  0  0  0
    4.2980   68.4380   62.5880 S   0  0  0  0  0  6  0  0  0  0  0  0
    4.8570   69.5330   61.8280 O   0  0  0  0  0  0  0  0  0  0  0  0
    4.9060   67.1270   62.5610 O   0  0  0  0  0  0  0  0  0  0  0  0
    2.7450   68.2950   62.2210 N   0  0  0  0  0  0  0  0  0  0  0  0
    1.7730   68.5270   63.0640 C   0  0  0  0  0  0  0  0  0  0  0  0
    1.9020   68.9140   64.3220 N   0  0  0  0  0  4  0  0  0  0  0  0
    0.3890   68.3490   62.5620 C   0  0  0  0  0  0  0  0  0  0  0  0
    4.3818   70.0736   67.9482 H   0  0  0  0  0  0  0  0  0  0  0  0
    2.2098   69.6756   66.7921 H   0  0  0  0  0  0  0  0  0  0  0  0
    6.5020   69.0205   64.3349 H   0  0  0  0  0  0  0  0  0  0  0  0
    2.4978   68.0031   61.2646 H   0  0  0  0  0  0  0  0  0  0  0  0
    1.0514   69.0669   64.8823 H   0  0  0  0  0  0  0  0  0  0  0  0
   -0.3014   68.2602   63.4137 H   0  0  0  0  0  0  0  0  0  0  0  0
    0.1063   69.2182   61.9499 H   0  0  0  0  0  0  0  0  0  0  0  0
    0.3355   67.4366   61.9499 H   0  0  0  0  0  0  0  0  0  0  0  0
  2  1  1  0
  3  2  2  0
  4  3  1  0
  5  4  2  0
  6  5  1  0
  7  6  2  0
  7  2  1  0
  8  6  1  0
  9  8  2  0
 10  8  2  0
 11  8  1  0
 12 11  1  0
 13 12  2  0
 13  5  1  0
 14 12  1  0
  3 15  1  0
  4 16  1  0
  7 17  1  0
 11 18  1  0
 13 19  1  0
 14 20  1  0
 14 21  1  0
 14 22  1  0
M  CHG  1  13   1
M  END
>  <score>  (6) 
-7.26

$$$$
=
     RDKit          3D

 22 23  0  0  0  0  0  0  0  0999 V2000
   -0.8620   68.0080   65.9440 Cl  0  0  0  0  0  0  0  0  0  0  0  0
    0.7070   68.5670   66.3550 C   0  0  0  0  0  0  0  0  0  0  0  0
    0.9240   69.1960   67.5770 C   0  0  0  0  0  0  0  0  0  0  0  0
    2.2060   69.6520   67.9140 C   0  0  0  0  0  0  0  0  0  0  0  0
    3.2850   69.4870   67.0350 C   0  0  0  0  0  0  0  0  0  0  0  0
    3.0320   68.8560   65.8260 C   0  0  0  0  0  0  0  0  0  0  0  0
    1.7600   68.3900   65.4670 C   0  0  0  0  0  0  0  0  0  0  0  0
    4.3630   68.6400   64.7210 S   0  0  0  0  0  6  0  0  0  0  0  0
    4.5620   67.2130   64.6110 O   0  0  0  0  0  0  0  0  0  0  0  0
    4.0480   69.4400   63.5580 O   0  0  0  0  0  0  0  0  0  0  0  0
    5.6300   69.2820   65.4610 N   0  0  0  0  0  0  0  0  0  0  0  0
    5.5780   69.8360   66.6450 C   0  0  0  0  0  0  0  0  0  0  0  0
    4.5070   69.9490   67.4110 N   0  0  0  0  0  4  0  0  0  0  0  0
    6.8460   70.3820   67.1890 C   0  0  0  0  0  0  0  0  0  0  0  0
    0.0889   69.3356   68.2792 H   0  0  0  0  0  0  0  0  0  0  0  0
    2.3675   70.1468   68.8830 H   0  0  0  0  0  0  0  0  0  0  0  0
    1.5985   67.8929   64.4991 H   0  0  0  0  0  0  0  0  0  0  0  0
    6.5386   69.2573   64.9765 H   0  0  0  0  0  0  0  0  0  0  0  0
    4.6019   70.4053   68.3295 H   0  0  0  0  0  0  0  0  0  0  0  0
    6.8101   70.3665   68.2883 H   0  0  0  0  0  0  0  0  0  0  0  0
    7.6891   69.7672   66.8410 H   0  0  0  0  0  0  0  0  0  0  0  0
    6.9787   71.4170   66.8410 H   0  0  0  0  0  0  0  0  0  0  0  0
  2  1  1  0
  3  2  2  0
  4  3  1  0
  5  4  2  0
  6  5  1  0
  7  6  2  0
  7  2  1  0
  8  6  1  0
  9  8  2  0
 10  8  2  0
 11  8  1  0
 12 11  1  0
 13 12  2  0
 13  5  1  0
 14 12  1  0
  3 15  1  0
  4 16  1  0
  7 17  1  0
 11 18  1  0
 13 19  1  0
 14 20  1  0
 14 21  1  0
 14 22  1  0
M  CHG  1  13   1
M  END
>  <score>  (7) 
-7.203

$$$$
=
     RDKit          3D

 22 23  0  0  0  0  0  0  0  0999 V2000
    0.2340   66.8350   69.2310 Cl  0  0  0  0  0  0  0  0  0  0  0  0
    0.0150   67.4840   67.6590 C   0  0  0  0  0  0  0  0  0  0  0  0
   -1.2390   67.9390   67.2610 C   0  0  0  0  0  0  0  0  0  0  0  0
   -1.4180   68.4700   65.9770 C   0  0  0  0  0  0  0  0  0  0  0  0
   -0.3490   68.5530   65.0750 C   0  0  0  0  0  0  0  0  0  0  0  0
    0.8860   68.0910   65.5040 C   0  0  0  0  0  0  0  0  0  0  0  0
    1.0910   67.5570   66.7840 C   0  0  0  0  0  0  0  0  0  0  0  0
    2.2270   68.1880   64.3950 S   0  0  0  0  0  6  0  0  0  0  0  0
    3.1650   69.1160   64.9850 O   0  0  0  0  0  0  0  0  0  0  0  0
    2.6090   66.8230   64.1120 O   0  0  0  0  0  0  0  0  0  0  0  0
    1.6230   68.8420   63.0630 N   0  0  0  0  0  0  0  0  0  0  0  0
    0.3700   69.1930   62.9280 C   0  0  0  0  0  0  0  0  0  0  0  0
   -0.5790   69.0770   63.8410 N   0  0  0  0  0  4  0  0  0  0  0  0
   -0.0260   69.7870   61.6280 C   0  0  0  0  0  0  0  0  0  0  0  0
   -2.0902   67.8815   67.9554 H   0  0  0  0  0  0  0  0  0  0  0  0
   -2.4128   68.8272   65.6724 H   0  0  0  0  0  0  0  0  0  0  0  0
    2.0863   67.2022   67.0898 H   0  0  0  0  0  0  0  0  0  0  0  0
    2.2581   68.9950   62.2667 H   0  0  0  0  0  0  0  0  0  0  0  0
   -1.5304   69.3961   63.6087 H   0  0  0  0  0  0  0  0  0  0  0  0
   -0.6281   70.6902   61.8058 H   0  0  0  0  0  0  0  0  0  0  0  0
    0.8755   70.0539   61.0570 H   0  0  0  0  0  0  0  0  0  0  0  0
   -0.6191   69.0575   61.0570 H   0  0  0  0  0  0  0  0  0  0  0  0
  2  1  1  0
  3  2  2  0
  4  3  1  0
  5  4  2  0
  6  5  1  0
  7  6  2  0
  7  2  1  0
  8  6  1  0
  9  8  2  0
 10  8  2  0
 11  8  1  0
 12 11  1  0
 13 12  2  0
 13  5  1  0
 14 12  1  0
  3 15  1  0
  4 16  1  0
  7 17  1  0
 11 18  1  0
 13 19  1  0
 14 20  1  0
 14 21  1  0
 14 22  1  0
M  CHG  1  13   1
M  END
>  <score>  (8) 
-7.066

$$$$
=
     RDKit          3D

 22 23  0  0  0  0  0  0  0  0999 V2000
    0.0060   66.0850   71.2470 Cl  0  0  0  0  0  0  0  0  0  0  0  0
    0.6760   64.5060   71.2690 C   0  0  0  0  0  0  0  0  0  0  0  0
    0.0800   63.5070   72.0320 C   0  0  0  0  0  0  0  0  0  0  0  0
    0.6270   62.2160   72.0500 C   0  0  0  0  0  0  0  0  0  0  0  0
    1.7740   61.9090   71.3070 C   0  0  0  0  0  0  0  0  0  0  0  0
    2.3420   62.9280   70.5580 C   0  0  0  0  0  0  0  0  0  0  0  0
    1.8140   64.2260   70.5230 C   0  0  0  0  0  0  0  0  0  0  0  0
    3.7690   62.5630   69.6260 S   0  0  0  0  0  6  0  0  0  0  0  0
    3.3920   62.7190   68.2410 O   0  0  0  0  0  0  0  0  0  0  0  0
    4.8340   63.3550   70.2020 O   0  0  0  0  0  0  0  0  0  0  0  0
    4.0680   61.0140   69.9080 N   0  0  0  0  0  0  0  0  0  0  0  0
    3.3400   60.2630   70.6940 C   0  0  0  0  0  0  0  0  0  0  0  0
    2.2630   60.6410   71.3610 N   0  0  0  0  0  4  0  0  0  0  0  0
    3.7530   58.8470   70.8440 C   0  0  0  0  0  0  0  0  0  0  0  0
   -0.8213   63.7301   72.6218 H   0  0  0  0  0  0  0  0  0  0  0  0
    0.1484   61.4330   72.6564 H   0  0  0  0  0  0  0  0  0  0  0  0
    2.2921   65.0088   69.9158 H   0  0  0  0  0  0  0  0  0  0  0  0
    4.8808   60.5846   69.4433 H   0  0  0  0  0  0  0  0  0  0  0  0
    1.7745   59.9473   71.9451 H   0  0  0  0  0  0  0  0  0  0  0  0
    3.8258   58.5975   71.9129 H   0  0  0  0  0  0  0  0  0  0  0  0
    3.0076   58.1950   70.3652 H   0  0  0  0  0  0  0  0  0  0  0  0
    4.7320   58.6979   70.3652 H   0  0  0  0  0  0  0  0  0  0  0  0
  2  1  1  0
  3  2  2  0
  4  3  1  0
  5  4  2  0
  6  5  1  0
  7  6  2  0
  7  2  1  0
  8  6  1  0
  9  8  2  0
 10  8  2  0
 11  8  1  0
 12 11  1  0
 13 12  2  0
 13  5  1  0
 14 12  1  0
  3 15  1  0
  4 16  1  0
  7 17  1  0
 11 18  1  0
 13 19  1  0
 14 20  1  0
 14 21  1  0
 14 22  1  0
M  CHG  1  13   1
M  END
>  <score>  (9) 
-6.789

$$$$
