=
     RDKit          3D

 42 44  0  0  0  0  0  0  0  0999 V2000
    1.2590   64.2000   71.1420 C   0  0  0  0  0  0  0  0  0  0  0  0
    2.5620   64.1830   70.6290 C   0  0  0  0  0  0  0  0  0  0  0  0
    3.3440   63.0340   70.7520 C   0  0  0  0  0  0  0  0  0  0  0  0
    2.8310   61.8930   71.3720 C   0  0  0  0  0  0  0  0  0  0  0  0
    1.5220   61.8800   71.8640 C   0  0  0  0  0  0  0  0  0  0  0  0
    0.7320   63.0350   71.7310 C   0  0  0  0  0  0  0  0  0  0  0  0
    1.0150   60.6650   72.4890 C   0  0  0  0  0  0  0  0  0  0  0  0
    1.8280   59.6100   72.5800 C   0  0  0  0  0  0  0  0  0  0  0  0
    3.2480   59.6090   72.0660 C   0  0  0  0  0  0  0  0  0  0  0  0
    3.6890   60.8310   71.4410 O   0  0  0  0  0  0  0  0  0  0  0  0
    4.2090   59.3480   73.2330 C   0  0  0  0  0  0  0  0  0  0  0  0
    3.4030   58.5060   71.0120 C   0  0  0  0  0  0  0  0  0  0  0  0
    0.4060   65.4100   71.0320 C   0  0  0  0  0  0  0  0  0  0  0  0
   -0.2890   65.7420   71.9920 O   0  0  0  0  0  0  0  0  0  0  0  0
   -0.7070   66.4040   69.0370 C   0  0  0  0  0  0  0  0  0  0  0  0
    0.3840   66.2380   69.8000 C   0  0  0  0  0  0  0  0  0  0  0  0
   -0.8360   68.6410   65.4080 C   0  0  0  0  0  0  0  0  0  0  0  0
   -2.0070   68.3580   66.0990 C   0  0  0  0  0  0  0  0  0  0  0  0
   -1.9500   67.6270   67.2880 C   0  0  0  0  0  0  0  0  0  0  0  0
   -0.7200   67.1910   67.7970 C   0  0  0  0  0  0  0  0  0  0  0  0
    0.4500   67.4740   67.0760 C   0  0  0  0  0  0  0  0  0  0  0  0
    0.3940   68.2030   65.8840 C   0  0  0  0  0  0  0  0  0  0  0  0
   -0.9390   69.3560   64.2510 O   0  0  0  0  0  0  0  0  0  0  0  0
   -0.5640   62.9910   72.1930 O   0  0  0  0  0  0  0  0  0  0  0  0
    2.9686   65.0747   70.1295 H   0  0  0  0  0  0  0  0  0  0  0  0
    4.3710   63.0271   70.3581 H   0  0  0  0  0  0  0  0  0  0  0  0
   -0.0134   60.6183   72.8766 H   0  0  0  0  0  0  0  0  0  0  0  0
    1.4439   58.6945   73.0537 H   0  0  0  0  0  0  0  0  0  0  0  0
    3.6774   59.4924   74.1851 H   0  0  0  0  0  0  0  0  0  0  0  0
    4.5840   58.3155   73.1753 H   0  0  0  0  0  0  0  0  0  0  0  0
    5.0548   60.0490   73.1753 H   0  0  0  0  0  0  0  0  0  0  0  0
    3.5393   57.5364   71.5133 H   0  0  0  0  0  0  0  0  0  0  0  0
    2.5011   58.4702   70.3833 H   0  0  0  0  0  0  0  0  0  0  0  0
    4.2799   58.7202   70.3833 H   0  0  0  0  0  0  0  0  0  0  0  0
   -1.6434   65.9242   69.3578 H   0  0  0  0  0  0  0  0  0  0  0  0
    1.3128   66.7429   69.4961 H   0  0  0  0  0  0  0  0  0  0  0  0
   -2.9752   68.7080   65.7117 H   0  0  0  0  0  0  0  0  0  0  0  0
   -2.8785   67.3919   67.8289 H   0  0  0  0  0  0  0  0  0  0  0  0
    1.4208   67.1189   67.4521 H   0  0  0  0  0  0  0  0  0  0  0  0
    1.3159   68.4279   65.3277 H   0  0  0  0  0  0  0  0  0  0  0  0
   -0.1257   69.5767   63.7314 H   0  0  0  0  0  0  0  0  0  0  0  0
   -1.1452   63.7885   72.1135 H   0  0  0  0  0  0  0  0  0  0  0  0
  2  1  2  0
  3  2  1  0
  4  3  2  0
  5  4  1  0
  6  5  2  0
  6  1  1  0
  7  5  1  0
  8  7  2  0
  9  8  1  0
 10  9  1  0
 10  4  1  0
 11  9  1  0
 12  9  1  0
 13  1  1  0
 14 13  2  0
 16 15  2  0
 16 13  1  0
 18 17  2  0
 19 18  1  0
 20 19  2  0
 20 15  1  0
 21 20  1  0
 22 21  2  0
 22 17  1  0
 23 17  1  0
 24  6  1  0
  2 25  1  0
  3 26  1  0
  7 27  1  0
  8 28  1  0
 11 29  1  0
 11 30  1  0
 11 31  1  0
 12 32  1  0
 12 33  1  0
 12 34  1  0
 15 35  1  0
 16 36  1  0
 18 37  1  0
 19 38  1  0
 21 39  1  0
 22 40  1  0
 23 41  1  0
 24 42  1  0
M  END
>  <score>  (1) 
-9.917

$$$$
=
     RDKit          3D

 42 44  0  0  0  0  0  0  0  0999 V2000
    1.2240   68.2230   66.5130 C   0  0  0  0  0  0  0  0  0  0  0  0
    0.7540   67.4140   65.4710 C   0  0  0  0  0  0  0  0  0  0  0  0
    1.4840   67.3110   64.2860 C   0  0  0  0  0  0  0  0  0  0  0  0
    2.6890   68.0000   64.1370 C   0  0  0  0  0  0  0  0  0  0  0  0
    3.1900   68.7880   65.1770 C   0  0  0  0  0  0  0  0  0  0  0  0
    2.4590   68.8840   66.3730 C   0  0  0  0  0  0  0  0  0  0  0  0
    4.4610   69.4770   64.9920 C   0  0  0  0  0  0  0  0  0  0  0  0
    5.0950   69.3390   63.8240 C   0  0  0  0  0  0  0  0  0  0  0  0
    4.5650   68.5020   62.6860 C   0  0  0  0  0  0  0  0  0  0  0  0
    3.3130   67.8290   62.9320 O   0  0  0  0  0  0  0  0  0  0  0  0
    4.3400   69.3980   61.4610 C   0  0  0  0  0  0  0  0  0  0  0  0
    5.5830   67.4070   62.3450 C   0  0  0  0  0  0  0  0  0  0  0  0
    0.4650   68.3580   67.7820 C   0  0  0  0  0  0  0  0  0  0  0  0
   -0.1160   69.4160   68.0230 O   0  0  0  0  0  0  0  0  0  0  0  0
    1.4360   66.7550   69.4240 C   0  0  0  0  0  0  0  0  0  0  0  0
    0.3780   67.2440   68.7590 C   0  0  0  0  0  0  0  0  0  0  0  0
    1.2480   63.4160   72.0710 C   0  0  0  0  0  0  0  0  0  0  0  0
    2.3100   63.5500   71.1860 C   0  0  0  0  0  0  0  0  0  0  0  0
    2.3610   64.6500   70.3270 C   0  0  0  0  0  0  0  0  0  0  0  0
    1.3570   65.6280   70.3610 C   0  0  0  0  0  0  0  0  0  0  0  0
    0.2850   65.4660   71.2520 C   0  0  0  0  0  0  0  0  0  0  0  0
    0.2320   64.3630   72.1110 C   0  0  0  0  0  0  0  0  0  0  0  0
    1.2380   62.3260   72.8900 O   0  0  0  0  0  0  0  0  0  0  0  0
    2.9860   69.6390   67.3970 O   0  0  0  0  0  0  0  0  0  0  0  0
   -0.1895   66.8604   65.5864 H   0  0  0  0  0  0  0  0  0  0  0  0
    1.1078   66.6833   63.4647 H   0  0  0  0  0  0  0  0  0  0  0  0
    4.8881   70.0959   65.7949 H   0  0  0  0  0  0  0  0  0  0  0  0
    6.0524   69.8624   63.6849 H   0  0  0  0  0  0  0  0  0  0  0  0
    4.0846   70.4152   61.7927 H   0  0  0  0  0  0  0  0  0  0  0  0
    5.2582   69.4293   60.8560 H   0  0  0  0  0  0  0  0  0  0  0  0
    3.5160   68.9918   60.8560 H   0  0  0  0  0  0  0  0  0  0  0  0
    5.9834   66.9763   63.2746 H   0  0  0  0  0  0  0  0  0  0  0  0
    5.0901   66.6181   61.7579 H   0  0  0  0  0  0  0  0  0  0  0  0
    6.4057   67.8412   61.7579 H   0  0  0  0  0  0  0  0  0  0  0  0
    2.4167   67.2247   69.2577 H   0  0  0  0  0  0  0  0  0  0  0  0
   -0.6080   66.7945   68.9483 H   0  0  0  0  0  0  0  0  0  0  0  0
    3.1076   62.7929   71.1618 H   0  0  0  0  0  0  0  0  0  0  0  0
    3.1959   64.7499   69.6178 H   0  0  0  0  0  0  0  0  0  0  0  0
   -0.5216   66.2136   71.2752 H   0  0  0  0  0  0  0  0  0  0  0  0
   -0.6073   64.2464   72.8124 H   0  0  0  0  0  0  0  0  0  0  0  0
    0.4970   62.1973   73.5337 H   0  0  0  0  0  0  0  0  0  0  0  0
    2.4943   69.7256   68.2519 H   0  0  0  0  0  0  0  0  0  0  0  0
  2  1  2  0
  3  2  1  0
  4  3  2  0
  5  4  1  0
  6  5  2  0
  6  1  1  0
  7  5  1  0
  8  7  2  0
  9  8  1  0
 10  9  1  0
 10  4  1  0
 11  9  1  0
 12  9  1  0
 13  1  1  0
 14 13  2  0
 16 15  2  0
 16 13  1  0
 18 17  2  0
 19 18  1  0
 20 19  2  0
 20 15  1  0
 21 20  1  0
 22 21  2  0
 22 17  1  0
 23 17  1  0
 24  6  1  0
  2 25  1  0
  3 26  1  0
  7 27  1  0
  8 28  1  0
 11 29  1  0
 11 30  1  0
 11 31  1  0
 12 32  1  0
 12 33  1  0
 12 34  1  0
 15 35  1  0
 16 36  1  0
 18 37  1  0
 19 38  1  0
 21 39  1  0
 22 40  1  0
 23 41  1  0
 24 42  1  0
M  END
>  <score>  (2) 
-8.942

$$$$
=
     RDKit          3D

 42 44  0  0  0  0  0  0  0  0999 V2000
    0.7480   64.4490   71.2100 C   0  0  0  0  0  0  0  0  0  0  0  0
    0.4130   63.5330   72.2150 C   0  0  0  0  0  0  0  0  0  0  0  0
    1.1040   62.3240   72.3130 C   0  0  0  0  0  0  0  0  0  0  0  0
    2.1380   62.0270   71.4230 C   0  0  0  0  0  0  0  0  0  0  0  0
    2.5070   62.9410   70.4330 C   0  0  0  0  0  0  0  0  0  0  0  0
    1.8170   64.1630   70.3410 C   0  0  0  0  0  0  0  0  0  0  0  0
    3.6040   62.6040   69.5340 C   0  0  0  0  0  0  0  0  0  0  0  0
    4.2080   61.4230   69.6830 C   0  0  0  0  0  0  0  0  0  0  0  0
    3.8160   60.4170   70.7390 C   0  0  0  0  0  0  0  0  0  0  0  0
    2.7370   60.8130   71.6110 O   0  0  0  0  0  0  0  0  0  0  0  0
    3.3680   59.1180   70.0580 C   0  0  0  0  0  0  0  0  0  0  0  0
    5.0220   60.1380   71.6440 C   0  0  0  0  0  0  0  0  0  0  0  0
    0.0260   65.7400   71.0770 C   0  0  0  0  0  0  0  0  0  0  0  0
   -0.6000   66.1780   72.0410 O   0  0  0  0  0  0  0  0  0  0  0  0
   -0.9250   66.4890   68.8990 C   0  0  0  0  0  0  0  0  0  0  0  0
    0.0560   66.5200   69.8140 C   0  0  0  0  0  0  0  0  0  0  0  0
   -0.6910   68.6780   65.2450 C   0  0  0  0  0  0  0  0  0  0  0  0
    0.4340   68.0410   65.7550 C   0  0  0  0  0  0  0  0  0  0  0  0
    0.3420   67.3250   66.9500 C   0  0  0  0  0  0  0  0  0  0  0  0
   -0.8780   67.2310   67.6330 C   0  0  0  0  0  0  0  0  0  0  0  0
   -1.9990   67.8940   67.1090 C   0  0  0  0  0  0  0  0  0  0  0  0
   -1.9080   68.6130   65.9140 C   0  0  0  0  0  0  0  0  0  0  0  0
   -0.5560   69.3660   64.0760 O   0  0  0  0  0  0  0  0  0  0  0  0
    2.2180   65.0630   69.3790 O   0  0  0  0  0  0  0  0  0  0  0  0
   -0.3934   63.7658   72.9260 H   0  0  0  0  0  0  0  0  0  0  0  0
    0.8322   61.6009   73.0961 H   0  0  0  0  0  0  0  0  0  0  0  0
    3.9264   63.3064   68.7513 H   0  0  0  0  0  0  0  0  0  0  0  0
    5.0336   61.1695   69.0017 H   0  0  0  0  0  0  0  0  0  0  0  0
    3.1107   58.3721   70.8244 H   0  0  0  0  0  0  0  0  0  0  0  0
    2.4869   59.3179   69.4306 H   0  0  0  0  0  0  0  0  0  0  0  0
    4.1850   58.7323   69.4306 H   0  0  0  0  0  0  0  0  0  0  0  0
    4.7140   60.2092   72.6976 H   0  0  0  0  0  0  0  0  0  0  0  0
    5.4061   59.1273   71.4418 H   0  0  0  0  0  0  0  0  0  0  0  0
    5.8110   60.8773   71.4418 H   0  0  0  0  0  0  0  0  0  0  0  0
   -1.8127   65.8742   69.1089 H   0  0  0  0  0  0  0  0  0  0  0  0
    0.9302   67.1582   69.6176 H   0  0  0  0  0  0  0  0  0  0  0  0
    1.3929   68.1007   65.2194 H   0  0  0  0  0  0  0  0  0  0  0  0
    1.2352   66.8302   67.3591 H   0  0  0  0  0  0  0  0  0  0  0  0
   -2.9588   67.8471   67.6444 H   0  0  0  0  0  0  0  0  0  0  0  0
   -2.7927   69.1237   65.5058 H   0  0  0  0  0  0  0  0  0  0  0  0
   -1.3360   69.8321   63.6830 H   0  0  0  0  0  0  0  0  0  0  0  0
    1.7522   65.9319   69.2892 H   0  0  0  0  0  0  0  0  0  0  0  0
  2  1  2  0
  3  2  1  0
  4  3  2  0
  5  4  1  0
  6  5  2  0
  6  1  1  0
  7  5  1  0
  8  7  2  0
  9  8  1  0
 10  9  1  0
 10  4  1  0
 11  9  1  0
 12  9  1  0
 13  1  1  0
 14 13  2  0
 16 15  2  0
 16 13  1  0
 18 17  2  0
 19 18  1  0
 20 19  2  0
 20 15  1  0
 21 20  1  0
 22 21  2  0
 22 17  1  0
 23 17  1  0
 24  6  1  0
  2 25  1  0
  3 26  1  0
  7 27  1  0
  8 28  1  0
 11 29  1  0
 11 30  1  0
 11 31  1  0
 12 32  1  0
 12 33  1  0
 12 34  1  0
 15 35  1  0
 16 36  1  0
 18 37  1  0
 19 38  1  0
 21 39  1  0
 22 40  1  0
 23 41  1  0
 24 42  1  0
M  END
>  <score>  (3) 
-8.763

$$$$
=
     RDKit          3D

 42 44  0  0  0  0  0  0  0  0999 V2000
    1.0910   68.1270   67.1930 C   0  0  0  0  0  0  0  0  0  0  0  0
    1.9150   69.1830   67.6000 C   0  0  0  0  0  0  0  0  0  0  0  0
    3.0570   69.4990   66.8630 C   0  0  0  0  0  0  0  0  0  0  0  0
    3.3770   68.7770   65.7110 C   0  0  0  0  0  0  0  0  0  0  0  0
    2.5500   67.7400   65.2710 C   0  0  0  0  0  0  0  0  0  0  0  0
    1.3950   67.4280   66.0100 C   0  0  0  0  0  0  0  0  0  0  0  0
    2.9060   67.0210   64.0540 C   0  0  0  0  0  0  0  0  0  0  0  0
    4.0210   67.3740   63.4100 C   0  0  0  0  0  0  0  0  0  0  0  0
    4.9330   68.4840   63.8760 C   0  0  0  0  0  0  0  0  0  0  0  0
    4.5210   69.1720   65.0750 O   0  0  0  0  0  0  0  0  0  0  0  0
    6.3250   67.9080   64.1640 C   0  0  0  0  0  0  0  0  0  0  0  0
    5.0320   69.5510   62.7800 C   0  0  0  0  0  0  0  0  0  0  0  0
   -0.1260   67.7630   67.9610 C   0  0  0  0  0  0  0  0  0  0  0  0
   -1.1920   68.3180   67.6950 O   0  0  0  0  0  0  0  0  0  0  0  0
    1.0350   66.3310   69.6370 C   0  0  0  0  0  0  0  0  0  0  0  0
   -0.0920   66.7340   69.0320 C   0  0  0  0  0  0  0  0  0  0  0  0
    1.1850   63.2270   72.5590 C   0  0  0  0  0  0  0  0  0  0  0  0
    2.1480   63.2970   71.5610 C   0  0  0  0  0  0  0  0  0  0  0  0
    2.0890   64.3210   70.6130 C   0  0  0  0  0  0  0  0  0  0  0  0
    1.0740   65.2860   70.6680 C   0  0  0  0  0  0  0  0  0  0  0  0
    0.1020   65.1880   71.6750 C   0  0  0  0  0  0  0  0  0  0  0  0
    0.1590   64.1620   72.6230 C   0  0  0  0  0  0  0  0  0  0  0  0
    1.2800   62.2100   73.4630 O   0  0  0  0  0  0  0  0  0  0  0  0
    0.5770   66.4240   65.5410 O   0  0  0  0  0  0  0  0  0  0  0  0
    1.6625   69.7631   68.4999 H   0  0  0  0  0  0  0  0  0  0  0  0
    3.7092   70.3217   67.1913 H   0  0  0  0  0  0  0  0  0  0  0  0
    2.2709   66.2067   63.6751 H   0  0  0  0  0  0  0  0  0  0  0  0
    4.2891   66.8285   62.4932 H   0  0  0  0  0  0  0  0  0  0  0  0
    6.4778   67.8448   65.2515 H   0  0  0  0  0  0  0  0  0  0  0  0
    6.4043   66.9032   63.7235 H   0  0  0  0  0  0  0  0  0  0  0  0
    7.0912   68.5630   63.7235 H   0  0  0  0  0  0  0  0  0  0  0  0
    5.1242   70.5446   63.2429 H   0  0  0  0  0  0  0  0  0  0  0  0
    5.9157   69.3541   62.1553 H   0  0  0  0  0  0  0  0  0  0  0  0
    4.1271   69.5200   62.1553 H   0  0  0  0  0  0  0  0  0  0  0  0
    1.9816   66.8092   69.3451 H   0  0  0  0  0  0  0  0  0  0  0  0
   -1.0426   66.2780   69.3457 H   0  0  0  0  0  0  0  0  0  0  0  0
    2.9537   62.5494   71.5172 H   0  0  0  0  0  0  0  0  0  0  0  0
    2.8458   64.3706   69.8162 H   0  0  0  0  0  0  0  0  0  0  0  0
   -0.7129   65.9256   71.7191 H   0  0  0  0  0  0  0  0  0  0  0  0
   -0.6028   64.0954   73.4138 H   0  0  0  0  0  0  0  0  0  0  0  0
    0.6112   62.1284   74.1884 H   0  0  0  0  0  0  0  0  0  0  0  0
   -0.2435   66.1809   66.0388 H   0  0  0  0  0  0  0  0  0  0  0  0
  2  1  2  0
  3  2  1  0
  4  3  2  0
  5  4  1  0
  6  5  2  0
  6  1  1  0
  7  5  1  0
  8  7  2  0
  9  8  1  0
 10  9  1  0
 10  4  1  0
 11  9  1  0
 12  9  1  0
 13  1  1  0
 14 13  2  0
 16 15  2  0
 16 13  1  0
 18 17  2  0
 19 18  1  0
 20 19  2  0
 20 15  1  0
 21 20  1  0
 22 21  2  0
 22 17  1  0
 23 17  1  0
 24  6  1  0
  2 25  1  0
  3 26  1  0
  7 27  1  0
  8 28  1  0
 11 29  1  0
 11 30  1  0
 11 31  1  0
 12 32  1  0
 12 33  1  0
 12 34  1  0
 15 35  1  0
 16 36  1  0
 18 37  1  0
 19 38  1  0
 21 39  1  0
 22 40  1  0
 23 41  1  0
 24 42  1  0
M  END
>  <score>  (4) 
-8.671

$$$$
=
     RDKit          3D

 42 44  0  0  0  0  0  0  0  0999 V2000
   -0.0050   61.9640   73.3320 C   0  0  0  0  0  0  0  0  0  0  0  0
    0.7480   60.7990   73.1420 C   0  0  0  0  0  0  0  0  0  0  0  0
    1.8230   60.8020   72.2510 C   0  0  0  0  0  0  0  0  0  0  0  0
    2.1610   61.9640   71.5560 C   0  0  0  0  0  0  0  0  0  0  0  0
    1.4400   63.1450   71.7540 C   0  0  0  0  0  0  0  0  0  0  0  0
    0.3640   63.1440   72.6590 C   0  0  0  0  0  0  0  0  0  0  0  0
    1.8350   64.3440   71.0250 C   0  0  0  0  0  0  0  0  0  0  0  0
    2.8670   64.2640   70.1810 C   0  0  0  0  0  0  0  0  0  0  0  0
    3.6490   62.9950   69.9450 C   0  0  0  0  0  0  0  0  0  0  0  0
    3.2260   61.8460   70.7070 O   0  0  0  0  0  0  0  0  0  0  0  0
    3.5370   62.5990   68.4670 C   0  0  0  0  0  0  0  0  0  0  0  0
    5.1200   63.2340   70.3060 C   0  0  0  0  0  0  0  0  0  0  0  0
   -1.1580   61.9890   74.2670 C   0  0  0  0  0  0  0  0  0  0  0  0
   -1.2460   62.9050   75.0850 O   0  0  0  0  0  0  0  0  0  0  0  0
   -3.4460   61.1190   74.7300 C   0  0  0  0  0  0  0  0  0  0  0  0
   -2.2140   60.9470   74.2280 C   0  0  0  0  0  0  0  0  0  0  0  0
   -6.3690   58.0120   74.7000 C   0  0  0  0  0  0  0  0  0  0  0  0
   -5.1070   57.7830   75.2330 C   0  0  0  0  0  0  0  0  0  0  0  0
   -4.1610   58.8100   75.2410 C   0  0  0  0  0  0  0  0  0  0  0  0
   -4.4790   60.0750   74.7260 C   0  0  0  0  0  0  0  0  0  0  0  0
   -5.7530   60.2810   74.1770 C   0  0  0  0  0  0  0  0  0  0  0  0
   -6.7010   59.2530   74.1680 C   0  0  0  0  0  0  0  0  0  0  0  0
   -7.2610   56.9810   74.7130 O   0  0  0  0  0  0  0  0  0  0  0  0
   -0.3120   64.3260   72.8640 O   0  0  0  0  0  0  0  0  0  0  0  0
    0.4930   59.8824   73.6941 H   0  0  0  0  0  0  0  0  0  0  0  0
    2.4070   59.8828   72.0959 H   0  0  0  0  0  0  0  0  0  0  0  0
    1.2958   65.2923   71.1667 H   0  0  0  0  0  0  0  0  0  0  0  0
    3.1620   65.1691   69.6298 H   0  0  0  0  0  0  0  0  0  0  0  0
    3.2383   61.5430   68.3920 H   0  0  0  0  0  0  0  0  0  0  0  0
    2.7819   63.2295   67.9747 H   0  0  0  0  0  0  0  0  0  0  0  0
    4.5104   62.7406   67.9747 H   0  0  0  0  0  0  0  0  0  0  0  0
    5.2307   63.2520   71.4003 H   0  0  0  0  0  0  0  0  0  0  0  0
    5.7363   62.4242   69.8884 H   0  0  0  0  0  0  0  0  0  0  0  0
    5.4482   64.1972   69.8884 H   0  0  0  0  0  0  0  0  0  0  0  0
   -3.6964   62.0960   75.1689 H   0  0  0  0  0  0  0  0  0  0  0  0
   -1.9732   59.9803   73.7617 H   0  0  0  0  0  0  0  0  0  0  0  0
   -4.8537   56.7960   75.6474 H   0  0  0  0  0  0  0  0  0  0  0  0
   -3.1585   58.6254   75.6545 H   0  0  0  0  0  0  0  0  0  0  0  0
   -6.0092   61.2614   73.7490 H   0  0  0  0  0  0  0  0  0  0  0  0
   -7.7012   59.4247   73.7435 H   0  0  0  0  0  0  0  0  0  0  0  0
   -8.1698   57.1080   74.3415 H   0  0  0  0  0  0  0  0  0  0  0  0
   -1.0741   64.3573   73.4951 H   0  0  0  0  0  0  0  0  0  0  0  0
  2  1  2  0
  3  2  1  0
  4  3  2  0
  5  4  1  0
  6  5  2  0
  6  1  1  0
  7  5  1  0
  8  7  2  0
  9  8  1  0
 10  9  1  0
 10  4  1  0
 11  9  1  0
 12  9  1  0
 13  1  1  0
 14 13  2  0
 16 15  2  0
 16 13  1  0
 18 17  2  0
 19 18  1  0
 20 19  2  0
 20 15  1  0
 21 20  1  0
 22 21  2  0
 22 17  1  0
 23 17  1  0
 24  6  1  0
  2 25  1  0
  3 26  1  0
  7 27  1  0
  8 28  1  0
 11 29  1  0
 11 30  1  0
 11 31  1  0
 12 32  1  0
 12 33  1  0
 12 34  1  0
 15 35  1  0
 16 36  1  0
 18 37  1  0
 19 38  1  0
 21 39  1  0
 22 40  1  0
 23 41  1  0
 24 42  1  0
M  END
>  <score>  (5) 
-8.253

$$$$
=
     RDKit          3D

 42 44  0  0  0  0  0  0  0  0999 V2000
    1.0140   59.6310   73.1110 C   0  0  0  0  0  0  0  0  0  0  0  0
    0.3950   60.8680   72.8940 C   0  0  0  0  0  0  0  0  0  0  0  0
    0.9990   61.8130   72.0630 C   0  0  0  0  0  0  0  0  0  0  0  0
    2.2130   61.5270   71.4350 C   0  0  0  0  0  0  0  0  0  0  0  0
    2.8310   60.2860   71.6150 C   0  0  0  0  0  0  0  0  0  0  0  0
    2.2170   59.3320   72.4440 C   0  0  0  0  0  0  0  0  0  0  0  0
    4.0880   60.0170   70.9270 C   0  0  0  0  0  0  0  0  0  0  0  0
    4.6100   60.9760   70.1580 C   0  0  0  0  0  0  0  0  0  0  0  0
    3.9630   62.3260   69.9610 C   0  0  0  0  0  0  0  0  0  0  0  0
    2.7130   62.5290   70.6500 O   0  0  0  0  0  0  0  0  0  0  0  0
    4.9150   63.4210   70.4600 C   0  0  0  0  0  0  0  0  0  0  0  0
    3.6720   62.5350   68.4700 C   0  0  0  0  0  0  0  0  0  0  0  0
    0.3990   58.6090   73.9960 C   0  0  0  0  0  0  0  0  0  0  0  0
    1.1290   57.8790   74.6650 O   0  0  0  0  0  0  0  0  0  0  0  0
   -1.8220   59.1060   75.0100 C   0  0  0  0  0  0  0  0  0  0  0  0
   -1.0750   58.4590   74.1040 C   0  0  0  0  0  0  0  0  0  0  0  0
   -6.0490   58.6950   75.4150 C   0  0  0  0  0  0  0  0  0  0  0  0
   -5.5070   59.8410   74.8490 C   0  0  0  0  0  0  0  0  0  0  0  0
   -4.1210   59.9610   74.7180 C   0  0  0  0  0  0  0  0  0  0  0  0
   -3.2740   58.9280   75.1420 C   0  0  0  0  0  0  0  0  0  0  0  0
   -3.8400   57.7850   75.7260 C   0  0  0  0  0  0  0  0  0  0  0  0
   -5.2270   57.6650   75.8590 C   0  0  0  0  0  0  0  0  0  0  0  0
   -7.4060   58.6210   75.5240 O   0  0  0  0  0  0  0  0  0  0  0  0
    2.8260   58.1050   72.5820 O   0  0  0  0  0  0  0  0  0  0  0  0
   -0.5664   61.0949   73.3779 H   0  0  0  0  0  0  0  0  0  0  0  0
    0.5161   62.7881   71.9020 H   0  0  0  0  0  0  0  0  0  0  0  0
    4.5945   59.0470   71.0387 H   0  0  0  0  0  0  0  0  0  0  0  0
    5.5597   60.7720   69.6418 H   0  0  0  0  0  0  0  0  0  0  0  0
    4.9212   63.4281   71.5600 H   0  0  0  0  0  0  0  0  0  0  0  0
    5.9309   63.2207   70.0889 H   0  0  0  0  0  0  0  0  0  0  0  0
    4.5753   64.3992   70.0889 H   0  0  0  0  0  0  0  0  0  0  0  0
    2.7834   63.1732   68.3558 H   0  0  0  0  0  0  0  0  0  0  0  0
    4.5359   63.0203   67.9923 H   0  0  0  0  0  0  0  0  0  0  0  0
    3.4880   61.5614   67.9923 H   0  0  0  0  0  0  0  0  0  0  0  0
   -1.3201   59.8085   75.6917 H   0  0  0  0  0  0  0  0  0  0  0  0
   -1.5813   57.7799   73.4022 H   0  0  0  0  0  0  0  0  0  0  0  0
   -6.1662   60.6516   74.5049 H   0  0  0  0  0  0  0  0  0  0  0  0
   -3.6913   60.8733   74.2787 H   0  0  0  0  0  0  0  0  0  0  0  0
   -3.1865   56.9753   76.0828 H   0  0  0  0  0  0  0  0  0  0  0  0
   -5.6644   56.7627   76.3114 H   0  0  0  0  0  0  0  0  0  0  0  0
   -7.8276   57.8188   75.9225 H   0  0  0  0  0  0  0  0  0  0  0  0
    2.4178   57.4119   73.1591 H   0  0  0  0  0  0  0  0  0  0  0  0
  2  1  2  0
  3  2  1  0
  4  3  2  0
  5  4  1  0
  6  5  2  0
  6  1  1  0
  7  5  1  0
  8  7  2  0
  9  8  1  0
 10  9  1  0
 10  4  1  0
 11  9  1  0
 12  9  1  0
 13  1  1  0
 14 13  2  0
 16 15  2  0
 16 13  1  0
 18 17  2  0
 19 18  1  0
 20 19  2  0
 20 15  1  0
 21 20  1  0
 22 21  2  0
 22 17  1  0
 23 17  1  0
 24  6  1  0
  2 25  1  0
  3 26  1  0
  7 27  1  0
  8 28  1  0
 11 29  1  0
 11 30  1  0
 11 31  1  0
 12 32  1  0
 12 33  1  0
 12 34  1  0
 15 35  1  0
 16 36  1  0
 18 37  1  0
 19 38  1  0
 21 39  1  0
 22 40  1  0
 23 41  1  0
 24 42  1  0
M  END
>  <score>  (6) 
-8.143

$$$$
=
     RDKit          3D

 42 44  0  0  0  0  0  0  0  0999 V2000
    1.1330   64.3160   70.8910 C   0  0  0  0  0  0  0  0  0  0  0  0
    1.7080   63.1850   70.2970 C   0  0  0  0  0  0  0  0  0  0  0  0
    1.6340   61.9480   70.9390 C   0  0  0  0  0  0  0  0  0  0  0  0
    0.9790   61.8270   72.1660 C   0  0  0  0  0  0  0  0  0  0  0  0
    0.3730   62.9380   72.7610 C   0  0  0  0  0  0  0  0  0  0  0  0
    0.4390   64.1810   72.1080 C   0  0  0  0  0  0  0  0  0  0  0  0
   -0.3180   62.7680   74.0330 C   0  0  0  0  0  0  0  0  0  0  0  0
   -0.3350   61.5550   74.5910 C   0  0  0  0  0  0  0  0  0  0  0  0
    0.3230   60.3470   73.9700 C   0  0  0  0  0  0  0  0  0  0  0  0
    0.9760   60.5700   72.7030 O   0  0  0  0  0  0  0  0  0  0  0  0
    1.3990   59.8110   74.9230 C   0  0  0  0  0  0  0  0  0  0  0  0
   -0.7350   59.2640   73.7250 C   0  0  0  0  0  0  0  0  0  0  0  0
    1.2020   65.6460   70.2360 C   0  0  0  0  0  0  0  0  0  0  0  0
    2.1560   66.3850   70.4780 O   0  0  0  0  0  0  0  0  0  0  0  0
    0.3030   67.1540   68.4680 C   0  0  0  0  0  0  0  0  0  0  0  0
    0.1570   66.1000   69.2840 C   0  0  0  0  0  0  0  0  0  0  0  0
   -2.6930   68.6210   65.8090 C   0  0  0  0  0  0  0  0  0  0  0  0
   -1.3700   69.0180   65.6620 C   0  0  0  0  0  0  0  0  0  0  0  0
   -0.3980   68.5270   66.5370 C   0  0  0  0  0  0  0  0  0  0  0  0
   -0.7450   67.6260   67.5540 C   0  0  0  0  0  0  0  0  0  0  0  0
   -2.0890   67.2500   67.6940 C   0  0  0  0  0  0  0  0  0  0  0  0
   -3.0630   67.7430   66.8200 C   0  0  0  0  0  0  0  0  0  0  0  0
   -3.6080   69.1260   64.9330 O   0  0  0  0  0  0  0  0  0  0  0  0
   -0.1910   65.2550   72.6950 O   0  0  0  0  0  0  0  0  0  0  0  0
    2.2172   63.2718   69.3258 H   0  0  0  0  0  0  0  0  0  0  0  0
    2.0945   61.0631   70.4755 H   0  0  0  0  0  0  0  0  0  0  0  0
   -0.8141   63.6193   74.5220 H   0  0  0  0  0  0  0  0  0  0  0  0
   -0.8550   61.4298   75.5522 H   0  0  0  0  0  0  0  0  0  0  0  0
    1.0795   59.9702   75.9635 H   0  0  0  0  0  0  0  0  0  0  0  0
    1.5441   58.7353   74.7444 H   0  0  0  0  0  0  0  0  0  0  0  0
    2.3450   60.3432   74.7444 H   0  0  0  0  0  0  0  0  0  0  0  0
   -1.1037   58.8866   74.6902 H   0  0  0  0  0  0  0  0  0  0  0  0
   -1.5725   59.6920   73.1545 H   0  0  0  0  0  0  0  0  0  0  0  0
   -0.2876   58.4367   73.1545 H   0  0  0  0  0  0  0  0  0  0  0  0
    1.2607   67.6949   68.4842 H   0  0  0  0  0  0  0  0  0  0  0  0
   -0.7894   65.5407   69.2460 H   0  0  0  0  0  0  0  0  0  0  0  0
   -1.0888   69.7162   64.8598 H   0  0  0  0  0  0  0  0  0  0  0  0
    0.6479   68.8497   66.4274 H   0  0  0  0  0  0  0  0  0  0  0  0
   -2.3800   66.5600   68.4998 H   0  0  0  0  0  0  0  0  0  0  0  0
   -4.1139   67.4380   66.9322 H   0  0  0  0  0  0  0  0  0  0  0  0
   -4.5603   68.8656   65.0070 H   0  0  0  0  0  0  0  0  0  0  0  0
   -0.1628   66.1438   72.2599 H   0  0  0  0  0  0  0  0  0  0  0  0
  2  1  2  0
  3  2  1  0
  4  3  2  0
  5  4  1  0
  6  5  2  0
  6  1  1  0
  7  5  1  0
  8  7  2  0
  9  8  1  0
 10  9  1  0
 10  4  1  0
 11  9  1  0
 12  9  1  0
 13  1  1  0
 14 13  2  0
 16 15  2  0
 16 13  1  0
 18 17  2  0
 19 18  1  0
 20 19  2  0
 20 15  1  0
 21 20  1  0
 22 21  2  0
 22 17  1  0
 23 17  1  0
 24  6  1  0
  2 25  1  0
  3 26  1  0
  7 27  1  0
  8 28  1  0
 11 29  1  0
 11 30  1  0
 11 31  1  0
 12 32  1  0
 12 33  1  0
 12 34  1  0
 15 35  1  0
 16 36  1  0
 18 37  1  0
 19 38  1  0
 21 39  1  0
 22 40  1  0
 23 41  1  0
 24 42  1  0
M  END
>  <score>  (7) 
-7.859

$$$$
=
     RDKit          3D

 42 44  0  0  0  0  0  0  0  0999 V2000
    1.8960   57.2790   74.1370 C   0  0  0  0  0  0  0  0  0  0  0  0
    0.6110   57.3890   73.5910 C   0  0  0  0  0  0  0  0  0  0  0  0
   -0.2870   56.3260   73.7040 C   0  0  0  0  0  0  0  0  0  0  0  0
    0.0830   55.1570   74.3710 C   0  0  0  0  0  0  0  0  0  0  0  0
    1.3510   55.0390   74.9480 C   0  0  0  0  0  0  0  0  0  0  0  0
    2.2510   56.1140   74.8420 C   0  0  0  0  0  0  0  0  0  0  0  0
    1.6950   53.8100   75.6520 C   0  0  0  0  0  0  0  0  0  0  0  0
    0.7860   52.8330   75.7070 C   0  0  0  0  0  0  0  0  0  0  0  0
   -0.5830   52.9370   75.0800 C   0  0  0  0  0  0  0  0  0  0  0  0
   -0.8740   54.1820   74.4130 O   0  0  0  0  0  0  0  0  0  0  0  0
   -0.7410   51.8340   74.0250 C   0  0  0  0  0  0  0  0  0  0  0  0
   -1.6520   52.7700   76.1670 C   0  0  0  0  0  0  0  0  0  0  0  0
    2.8750   58.3900   74.0260 C   0  0  0  0  0  0  0  0  0  0  0  0
    3.5890   58.6570   74.9920 O   0  0  0  0  0  0  0  0  0  0  0  0
    3.4260   60.4530   72.7420 C   0  0  0  0  0  0  0  0  0  0  0  0
    3.0240   59.1740   72.7740 C   0  0  0  0  0  0  0  0  0  0  0  0
    3.7300   62.6490   69.0980 C   0  0  0  0  0  0  0  0  0  0  0  0
    2.8450   61.5840   69.2030 C   0  0  0  0  0  0  0  0  0  0  0  0
    2.7520   60.8760   70.4030 C   0  0  0  0  0  0  0  0  0  0  0  0
    3.5350   61.2400   71.5070 C   0  0  0  0  0  0  0  0  0  0  0  0
    4.4340   62.3090   71.3760 C   0  0  0  0  0  0  0  0  0  0  0  0
    4.5290   63.0170   70.1740 C   0  0  0  0  0  0  0  0  0  0  0  0
    3.7880   63.3120   67.9080 O   0  0  0  0  0  0  0  0  0  0  0  0
    3.4820   55.9900   75.4460 O   0  0  0  0  0  0  0  0  0  0  0  0
    0.3096   58.3118   73.0737 H   0  0  0  0  0  0  0  0  0  0  0  0
   -1.2920   56.4102   73.2648 H   0  0  0  0  0  0  0  0  0  0  0  0
    2.6800   53.6900   76.1268 H   0  0  0  0  0  0  0  0  0  0  0  0
    1.0485   51.9051   76.2363 H   0  0  0  0  0  0  0  0  0  0  0  0
   -0.8799   50.8646   74.5260 H   0  0  0  0  0  0  0  0  0  0  0  0
   -1.6173   52.0507   73.3964 H   0  0  0  0  0  0  0  0  0  0  0  0
    0.1609   51.7960   73.3964 H   0  0  0  0  0  0  0  0  0  0  0  0
   -1.1813   52.8435   77.1585 H   0  0  0  0  0  0  0  0  0  0  0  0
   -2.4093   53.5607   76.0611 H   0  0  0  0  0  0  0  0  0  0  0  0
   -2.1321   51.7860   76.0611 H   0  0  0  0  0  0  0  0  0  0  0  0
    3.6885   60.9393   73.6931 H   0  0  0  0  0  0  0  0  0  0  0  0
    2.7918   58.6783   71.8199 H   0  0  0  0  0  0  0  0  0  0  0  0
    2.2196   61.2992   68.3441 H   0  0  0  0  0  0  0  0  0  0  0  0
    2.0586   60.0258   70.4825 H   0  0  0  0  0  0  0  0  0  0  0  0
    5.0703   62.5930   72.2271 H   0  0  0  0  0  0  0  0  0  0  0  0
    5.2308   63.8589   70.0807 H   0  0  0  0  0  0  0  0  0  0  0  0
    4.4074   64.0763   67.7968 H   0  0  0  0  0  0  0  0  0  0  0  0
    4.1379   56.7294   75.3894 H   0  0  0  0  0  0  0  0  0  0  0  0
  2  1  2  0
  3  2  1  0
  4  3  2  0
  5  4  1  0
  6  5  2  0
  6  1  1  0
  7  5  1  0
  8  7  2  0
  9  8  1  0
 10  9  1  0
 10  4  1  0
 11  9  1  0
 12  9  1  0
 13  1  1  0
 14 13  2  0
 16 15  2  0
 16 13  1  0
 18 17  2  0
 19 18  1  0
 20 19  2  0
 20 15  1  0
 21 20  1  0
 22 21  2  0
 22 17  1  0
 23 17  1  0
 24  6  1  0
  2 25  1  0
  3 26  1  0
  7 27  1  0
  8 28  1  0
 11 29  1  0
 11 30  1  0
 11 31  1  0
 12 32  1  0
 12 33  1  0
 12 34  1  0
 15 35  1  0
 16 36  1  0
 18 37  1  0
 19 38  1  0
 21 39  1  0
 22 40  1  0
 23 41  1  0
 24 42  1  0
M  END
>  <score>  (8) 
-7.852

$$$$
=
     RDKit          3D

 42 44  0  0  0  0  0  0  0  0999 V2000
    1.5420   58.5540   72.9570 C   0  0  0  0  0  0  0  0  0  0  0  0
    0.9030   59.7780   73.1930 C   0  0  0  0  0  0  0  0  0  0  0  0
    1.3200   60.9230   72.5130 C   0  0  0  0  0  0  0  0  0  0  0  0
    2.3630   60.8550   71.5880 C   0  0  0  0  0  0  0  0  0  0  0  0
    2.9930   59.6370   71.3160 C   0  0  0  0  0  0  0  0  0  0  0  0
    2.5660   58.4820   71.9940 C   0  0  0  0  0  0  0  0  0  0  0  0
    4.0650   59.6010   70.3290 C   0  0  0  0  0  0  0  0  0  0  0  0
    4.4150   60.7420   69.7290 C   0  0  0  0  0  0  0  0  0  0  0  0
    3.7550   62.0690   70.0180 C   0  0  0  0  0  0  0  0  0  0  0  0
    2.6880   62.0400   70.9880 O   0  0  0  0  0  0  0  0  0  0  0  0
    4.8040   63.0500   70.5560 C   0  0  0  0  0  0  0  0  0  0  0  0
    3.1450   62.6220   68.7240 C   0  0  0  0  0  0  0  0  0  0  0  0
    1.1260   57.3200   73.6710 C   0  0  0  0  0  0  0  0  0  0  0  0
    0.3810   56.5220   73.1030 O   0  0  0  0  0  0  0  0  0  0  0  0
    2.7800   57.4310   75.5300 C   0  0  0  0  0  0  0  0  0  0  0  0
    1.5990   57.0190   75.0460 C   0  0  0  0  0  0  0  0  0  0  0  0
    4.2710   56.4190   79.3960 C   0  0  0  0  0  0  0  0  0  0  0  0
    5.1500   56.6970   78.3570 C   0  0  0  0  0  0  0  0  0  0  0  0
    4.6480   57.0310   77.0970 C   0  0  0  0  0  0  0  0  0  0  0  0
    3.2650   57.1010   76.8770 C   0  0  0  0  0  0  0  0  0  0  0  0
    2.3950   56.8010   77.9360 C   0  0  0  0  0  0  0  0  0  0  0  0
    2.8970   56.4650   79.1970 C   0  0  0  0  0  0  0  0  0  0  0  0
    4.8050   56.0960   80.6090 O   0  0  0  0  0  0  0  0  0  0  0  0
    3.1780   57.2870   71.6880 O   0  0  0  0  0  0  0  0  0  0  0  0
    0.0737   59.8365   73.9133 H   0  0  0  0  0  0  0  0  0  0  0  0
    0.8236   61.8852   72.7072 H   0  0  0  0  0  0  0  0  0  0  0  0
    4.5736   58.6569   70.0841 H   0  0  0  0  0  0  0  0  0  0  0  0
    5.2258   60.7134   68.9861 H   0  0  0  0  0  0  0  0  0  0  0  0
    4.7891   63.0360   71.6558 H   0  0  0  0  0  0  0  0  0  0  0  0
    5.8011   62.7528   70.1990 H   0  0  0  0  0  0  0  0  0  0  0  0
    4.5742   64.0648   70.1990 H   0  0  0  0  0  0  0  0  0  0  0  0
    2.3509   63.3419   68.9714 H   0  0  0  0  0  0  0  0  0  0  0  0
    3.9265   63.1258   68.1363 H   0  0  0  0  0  0  0  0  0  0  0  0
    2.7201   61.7950   68.1363 H   0  0  0  0  0  0  0  0  0  0  0  0
    3.4201   58.0494   74.8835 H   0  0  0  0  0  0  0  0  0  0  0  0
    0.9456   56.4262   75.7030 H   0  0  0  0  0  0  0  0  0  0  0  0
    6.2362   56.6543   78.5256 H   0  0  0  0  0  0  0  0  0  0  0  0
    5.3432   57.2408   76.2708 H   0  0  0  0  0  0  0  0  0  0  0  0
    1.3076   56.8304   77.7727 H   0  0  0  0  0  0  0  0  0  0  0  0
    2.2092   56.2388   80.0251 H   0  0  0  0  0  0  0  0  0  0  0  0
    4.2098   55.8916   81.3732 H   0  0  0  0  0  0  0  0  0  0  0  0
    2.8994   56.4560   72.1484 H   0  0  0  0  0  0  0  0  0  0  0  0
  2  1  2  0
  3  2  1  0
  4  3  2  0
  5  4  1  0
  6  5  2  0
  6  1  1  0
  7  5  1  0
  8  7  2  0
  9  8  1  0
 10  9  1  0
 10  4  1  0
 11  9  1  0
 12  9  1  0
 13  1  1  0
 14 13  2  0
 16 15  2  0
 16 13  1  0
 18 17  2  0
 19 18  1  0
 20 19  2  0
 20 15  1  0
 21 20  1  0
 22 21  2  0
 22 17  1  0
 23 17  1  0
 24  6  1  0
  2 25  1  0
  3 26  1  0
  7 27  1  0
  8 28  1  0
 11 29  1  0
 11 30  1  0
 11 31  1  0
 12 32  1  0
 12 33  1  0
 12 34  1  0
 15 35  1  0
 16 36  1  0
 18 37  1  0
 19 38  1  0
 21 39  1  0
 22 40  1  0
 23 41  1  0
 24 42  1  0
M  END
>  <score>  (9) 
-7.509

$$$$
