=
     RDKit          3D

 40 41  0  0  0  0  0  0  0  0999 V2000
    3.7840   68.5780   63.2540 C   0  0  0  0  0  0  0  0  0  0  0  0
    4.3360   68.0500   62.2920 O   0  0  0  0  0  0  0  0  0  0  0  0
    2.3130   68.7690   63.2550 C   0  0  0  0  0  0  0  0  0  0  0  0
    1.6880   69.1030   62.0450 C   0  0  0  0  0  0  0  0  0  0  0  0
    0.3030   69.2860   61.9930 C   0  0  0  0  0  0  0  0  0  0  0  0
   -0.4630   69.1200   63.1450 C   0  0  0  0  0  0  0  0  0  0  0  0
    0.1610   68.7490   64.3350 C   0  0  0  0  0  0  0  0  0  0  0  0
    1.5430   68.5820   64.4090 C   0  0  0  0  0  0  0  0  0  0  0  0
   -0.6470   68.6340   65.4760 O   0  0  0  0  0  0  0  0  0  0  0  0
   -0.2440   67.7110   66.4400 C   0  0  0  0  0  0  0  0  0  0  0  0
   -0.4220   66.5000   66.3520 O   0  0  0  0  0  0  0  0  0  0  0  0
    0.3840   68.3170   67.5250 N   0  0  0  0  0  0  0  0  0  0  0  0
    0.4350   69.7570   67.6980 C   0  0  0  0  0  0  0  0  0  0  0  0
    0.7150   67.5050   68.6810 C   0  0  0  0  0  0  0  0  0  0  0  0
    4.1050   69.4680   65.5670 C   0  0  0  0  0  0  0  0  0  0  0  0
    4.6110   69.0210   64.4080 C   0  0  0  0  0  0  0  0  0  0  0  0
    6.5830   70.7510   68.7940 C   0  0  0  0  0  0  0  0  0  0  0  0
    7.1420   70.4310   67.5640 C   0  0  0  0  0  0  0  0  0  0  0  0
    6.3190   70.0180   66.5150 C   0  0  0  0  0  0  0  0  0  0  0  0
    4.9310   69.9340   66.6890 C   0  0  0  0  0  0  0  0  0  0  0  0
    4.3870   70.2470   67.9430 C   0  0  0  0  0  0  0  0  0  0  0  0
    5.2100   70.6600   68.9960 C   0  0  0  0  0  0  0  0  0  0  0  0
    7.4220   71.1500   69.7910 O   0  0  0  0  0  0  0  0  0  0  0  0
    2.2904   69.2216   61.1323 H   0  0  0  0  0  0  0  0  0  0  0  0
   -0.1812   69.5606   61.0442 H   0  0  0  0  0  0  0  0  0  0  0  0
   -1.5509   69.2803   63.1157 H   0  0  0  0  0  0  0  0  0  0  0  0
    2.0216   68.3072   65.3606 H   0  0  0  0  0  0  0  0  0  0  0  0
    0.4435   69.9973   68.7714 H   0  0  0  0  0  0  0  0  0  0  0  0
    1.3477   70.1508   67.2269 H   0  0  0  0  0  0  0  0  0  0  0  0
   -0.4475   70.2144   67.2269 H   0  0  0  0  0  0  0  0  0  0  0  0
    0.4867   68.0649   69.5999 H   0  0  0  0  0  0  0  0  0  0  0  0
    0.1229   66.5782   68.6598 H   0  0  0  0  0  0  0  0  0  0  0  0
    1.7863   67.2563   68.6598 H   0  0  0  0  0  0  0  0  0  0  0  0
    3.0114   69.4867   65.6838 H   0  0  0  0  0  0  0  0  0  0  0  0
    5.7053   68.9795   64.3046 H   0  0  0  0  0  0  0  0  0  0  0  0
    8.2297   70.5027   67.4167 H   0  0  0  0  0  0  0  0  0  0  0  0
    6.7637   69.7563   65.5435 H   0  0  0  0  0  0  0  0  0  0  0  0
    3.3013   70.1669   68.1003 H   0  0  0  0  0  0  0  0  0  0  0  0
    4.7752   70.9105   69.9749 H   0  0  0  0  0  0  0  0  0  0  0  0
    7.0569   71.3857   70.6805 H   0  0  0  0  0  0  0  0  0  0  0  0
  2  1  2  0
  3  1  1  0
  4  3  2  0
  5  4  1  0
  6  5  2  0
  7  6  1  0
  8  7  2  0
  8  3  1  0
  9  7  1  0
 10  9  1  0
 11 10  2  0
 12 10  1  0
 13 12  1  0
 14 12  1  0
 16  1  1  0
 16 15  2  0
 18 17  2  0
 19 18  1  0
 20 15  1  0
 20 19  2  0
 21 20  1  0
 22 21  2  0
 22 17  1  0
 23 17  1  0
  4 24  1  0
  5 25  1  0
  6 26  1  0
  8 27  1  0
 13 28  1  0
 13 29  1  0
 13 30  1  0
 14 31  1  0
 14 32  1  0
 14 33  1  0
 15 34  1  0
 16 35  1  0
 18 36  1  0
 19 37  1  0
 21 38  1  0
 22 39  1  0
 23 40  1  0
M  END
>  <score>  (1) 
-10.275

$$$$
=
     RDKit          3D

 40 41  0  0  0  0  0  0  0  0999 V2000
    0.7450   68.5750   66.9640 C   0  0  0  0  0  0  0  0  0  0  0  0
   -0.1390   68.1150   67.6820 O   0  0  0  0  0  0  0  0  0  0  0  0
    0.6050   68.5250   65.4880 C   0  0  0  0  0  0  0  0  0  0  0  0
   -0.5910   68.9910   64.9200 C   0  0  0  0  0  0  0  0  0  0  0  0
   -0.7680   68.9720   63.5340 C   0  0  0  0  0  0  0  0  0  0  0  0
    0.2530   68.5040   62.7100 C   0  0  0  0  0  0  0  0  0  0  0  0
    1.4540   68.0800   63.2790 C   0  0  0  0  0  0  0  0  0  0  0  0
    1.6400   68.0750   64.6610 C   0  0  0  0  0  0  0  0  0  0  0  0
    2.4360   67.5810   62.4120 O   0  0  0  0  0  0  0  0  0  0  0  0
    3.3820   68.4910   61.9430 C   0  0  0  0  0  0  0  0  0  0  0  0
    3.2190   69.2100   60.9610 O   0  0  0  0  0  0  0  0  0  0  0  0
    4.5420   68.4950   62.7110 N   0  0  0  0  0  0  0  0  0  0  0  0
    4.7910   67.5230   63.7610 C   0  0  0  0  0  0  0  0  0  0  0  0
    5.6790   69.2720   62.2540 C   0  0  0  0  0  0  0  0  0  0  0  0
    3.0830   69.4570   66.9340 C   0  0  0  0  0  0  0  0  0  0  0  0
    1.9490   69.1760   67.5950 C   0  0  0  0  0  0  0  0  0  0  0  0
    6.6190   71.0220   68.7350 C   0  0  0  0  0  0  0  0  0  0  0  0
    6.6280   70.6180   67.4070 C   0  0  0  0  0  0  0  0  0  0  0  0
    5.4620   70.1130   66.8280 C   0  0  0  0  0  0  0  0  0  0  0  0
    4.2790   70.0210   67.5730 C   0  0  0  0  0  0  0  0  0  0  0  0
    4.2940   70.4200   68.9170 C   0  0  0  0  0  0  0  0  0  0  0  0
    5.4620   70.9250   69.4990 C   0  0  0  0  0  0  0  0  0  0  0  0
    7.7780   71.5090   69.2610 O   0  0  0  0  0  0  0  0  0  0  0  0
   -1.3928   69.3730   65.5690 H   0  0  0  0  0  0  0  0  0  0  0  0
   -1.7121   69.3261   63.0943 H   0  0  0  0  0  0  0  0  0  0  0  0
    0.1133   68.4691   61.6195 H   0  0  0  0  0  0  0  0  0  0  0  0
    2.5872   67.7222   65.0949 H   0  0  0  0  0  0  0  0  0  0  0  0
    4.6678   68.0039   64.7426 H   0  0  0  0  0  0  0  0  0  0  0  0
    4.0768   66.6916   63.6678 H   0  0  0  0  0  0  0  0  0  0  0  0
    5.8169   67.1373   63.6678 H   0  0  0  0  0  0  0  0  0  0  0  0
    6.2360   69.6526   63.1228 H   0  0  0  0  0  0  0  0  0  0  0  0
    6.3382   68.6347   61.6464 H   0  0  0  0  0  0  0  0  0  0  0  0
    5.3247   70.1177   61.6464 H   0  0  0  0  0  0  0  0  0  0  0  0
    3.1184   69.2535   65.8536 H   0  0  0  0  0  0  0  0  0  0  0  0
    1.9083   69.4047   68.6702 H   0  0  0  0  0  0  0  0  0  0  0  0
    7.5505   70.6954   66.8128 H   0  0  0  0  0  0  0  0  0  0  0  0
    5.4724   69.7847   65.7782 H   0  0  0  0  0  0  0  0  0  0  0  0
    3.3781   70.3352   69.5202 H   0  0  0  0  0  0  0  0  0  0  0  0
    5.4645   71.2425   70.5522 H   0  0  0  0  0  0  0  0  0  0  0  0
    7.8068   71.8061   70.2049 H   0  0  0  0  0  0  0  0  0  0  0  0
  2  1  2  0
  3  1  1  0
  4  3  2  0
  5  4  1  0
  6  5  2  0
  7  6  1  0
  8  7  2  0
  8  3  1  0
  9  7  1  0
 10  9  1  0
 11 10  2  0
 12 10  1  0
 13 12  1  0
 14 12  1  0
 16  1  1  0
 16 15  2  0
 18 17  2  0
 19 18  1  0
 20 15  1  0
 20 19  2  0
 21 20  1  0
 22 21  2  0
 22 17  1  0
 23 17  1  0
  4 24  1  0
  5 25  1  0
  6 26  1  0
  8 27  1  0
 13 28  1  0
 13 29  1  0
 13 30  1  0
 14 31  1  0
 14 32  1  0
 14 33  1  0
 15 34  1  0
 16 35  1  0
 18 36  1  0
 19 37  1  0
 21 38  1  0
 22 39  1  0
 23 40  1  0
M  END
>  <score>  (2) 
-9.661

$$$$
=
     RDKit          3D

 40 41  0  0  0  0  0  0  0  0999 V2000
    3.1930   70.1800   68.6850 C   0  0  0  0  0  0  0  0  0  0  0  0
    3.3600   70.3980   69.8820 O   0  0  0  0  0  0  0  0  0  0  0  0
    4.3510   70.1970   67.7580 C   0  0  0  0  0  0  0  0  0  0  0  0
    5.6050   70.5620   68.2700 C   0  0  0  0  0  0  0  0  0  0  0  0
    6.7290   70.5850   67.4390 C   0  0  0  0  0  0  0  0  0  0  0  0
    6.6070   70.2280   66.0970 C   0  0  0  0  0  0  0  0  0  0  0  0
    5.3650   69.8270   65.6050 C   0  0  0  0  0  0  0  0  0  0  0  0
    4.2310   69.8170   66.4170 C   0  0  0  0  0  0  0  0  0  0  0  0
    5.2850   69.5150   64.2400 O   0  0  0  0  0  0  0  0  0  0  0  0
    5.3100   68.1620   63.9020 C   0  0  0  0  0  0  0  0  0  0  0  0
    6.1850   67.3800   64.2590 O   0  0  0  0  0  0  0  0  0  0  0  0
    4.2300   67.7940   63.1060 N   0  0  0  0  0  0  0  0  0  0  0  0
    3.3000   68.7600   62.5500 C   0  0  0  0  0  0  0  0  0  0  0  0
    4.2030   66.4570   62.5410 C   0  0  0  0  0  0  0  0  0  0  0  0
    1.3300   68.6750   67.9730 C   0  0  0  0  0  0  0  0  0  0  0  0
    1.8200   69.9060   68.1840 C   0  0  0  0  0  0  0  0  0  0  0  0
   -2.6020   68.0310   66.4500 C   0  0  0  0  0  0  0  0  0  0  0  0
   -1.8750   69.1480   66.0630 C   0  0  0  0  0  0  0  0  0  0  0  0
   -0.5860   69.3440   66.5650 C   0  0  0  0  0  0  0  0  0  0  0  0
   -0.0170   68.4160   67.4470 C   0  0  0  0  0  0  0  0  0  0  0  0
   -0.7730   67.3020   67.8370 C   0  0  0  0  0  0  0  0  0  0  0  0
   -2.0650   67.1050   67.3360 C   0  0  0  0  0  0  0  0  0  0  0  0
   -3.8560   67.8780   65.9370 O   0  0  0  0  0  0  0  0  0  0  0  0
    5.7045   70.8317   69.3318 H   0  0  0  0  0  0  0  0  0  0  0  0
    7.7074   70.8841   67.8432 H   0  0  0  0  0  0  0  0  0  0  0  0
    7.4825   70.2622   65.4319 H   0  0  0  0  0  0  0  0  0  0  0  0
    3.2555   69.5144   66.0085 H   0  0  0  0  0  0  0  0  0  0  0  0
    2.7896   69.2902   63.3676 H   0  0  0  0  0  0  0  0  0  0  0  0
    3.8499   69.4838   61.9306 H   0  0  0  0  0  0  0  0  0  0  0  0
    2.5558   68.2380   61.9306 H   0  0  0  0  0  0  0  0  0  0  0  0
    4.1880   65.7158   63.3536 H   0  0  0  0  0  0  0  0  0  0  0  0
    3.3023   66.3392   61.9206 H   0  0  0  0  0  0  0  0  0  0  0  0
    5.0982   66.3029   61.9206 H   0  0  0  0  0  0  0  0  0  0  0  0
    1.9718   67.8127   68.2066 H   0  0  0  0  0  0  0  0  0  0  0  0
    1.1661   70.7651   67.9735 H   0  0  0  0  0  0  0  0  0  0  0  0
   -2.3119   69.8762   65.3638 H   0  0  0  0  0  0  0  0  0  0  0  0
   -0.0133   70.2341   66.2653 H   0  0  0  0  0  0  0  0  0  0  0  0
   -0.3466   66.5752   68.5440 H   0  0  0  0  0  0  0  0  0  0  0  0
   -2.6501   66.2249   67.6410 H   0  0  0  0  0  0  0  0  0  0  0  0
   -4.4026   67.0928   66.1916 H   0  0  0  0  0  0  0  0  0  0  0  0
  2  1  2  0
  3  1  1  0
  4  3  2  0
  5  4  1  0
  6  5  2  0
  7  6  1  0
  8  7  2  0
  8  3  1  0
  9  7  1  0
 10  9  1  0
 11 10  2  0
 12 10  1  0
 13 12  1  0
 14 12  1  0
 16  1  1  0
 16 15  2  0
 18 17  2  0
 19 18  1  0
 20 15  1  0
 20 19  2  0
 21 20  1  0
 22 21  2  0
 22 17  1  0
 23 17  1  0
  4 24  1  0
  5 25  1  0
  6 26  1  0
  8 27  1  0
 13 28  1  0
 13 29  1  0
 13 30  1  0
 14 31  1  0
 14 32  1  0
 14 33  1  0
 15 34  1  0
 16 35  1  0
 18 36  1  0
 19 37  1  0
 21 38  1  0
 22 39  1  0
 23 40  1  0
M  END
>  <score>  (3) 
-9.641

$$$$
=
     RDKit          3D

 40 41  0  0  0  0  0  0  0  0999 V2000
    1.6940   68.3290   65.1730 C   0  0  0  0  0  0  0  0  0  0  0  0
    1.6300   68.1340   63.9620 O   0  0  0  0  0  0  0  0  0  0  0  0
    0.5110   68.0750   66.0310 C   0  0  0  0  0  0  0  0  0  0  0  0
   -0.7150   68.6430   65.6540 C   0  0  0  0  0  0  0  0  0  0  0  0
   -1.8610   68.4260   66.4250 C   0  0  0  0  0  0  0  0  0  0  0  0
   -1.7900   67.6280   67.5650 C   0  0  0  0  0  0  0  0  0  0  0  0
   -0.5760   67.0340   67.9110 C   0  0  0  0  0  0  0  0  0  0  0  0
    0.5800   67.2560   67.1640 C   0  0  0  0  0  0  0  0  0  0  0  0
   -0.5460   66.2730   69.0890 O   0  0  0  0  0  0  0  0  0  0  0  0
    0.6820   66.1730   69.7400 C   0  0  0  0  0  0  0  0  0  0  0  0
    1.5070   67.0800   69.7970 O   0  0  0  0  0  0  0  0  0  0  0  0
    0.8760   64.9230   70.3200 N   0  0  0  0  0  0  0  0  0  0  0  0
   -0.0280   63.8080   70.1000 C   0  0  0  0  0  0  0  0  0  0  0  0
    2.1720   64.6130   70.8950 C   0  0  0  0  0  0  0  0  0  0  0  0
    3.0570   69.4490   66.9430 C   0  0  0  0  0  0  0  0  0  0  0  0
    2.9680   68.8230   65.7590 C   0  0  0  0  0  0  0  0  0  0  0  0
    6.6580   71.0130   68.6140 C   0  0  0  0  0  0  0  0  0  0  0  0
    5.5130   70.9040   69.3920 C   0  0  0  0  0  0  0  0  0  0  0  0
    4.3420   70.3850   68.8330 C   0  0  0  0  0  0  0  0  0  0  0  0
    4.3170   69.9630   67.4970 C   0  0  0  0  0  0  0  0  0  0  0  0
    5.4790   70.0960   66.7240 C   0  0  0  0  0  0  0  0  0  0  0  0
    6.6520   70.6160   67.2820 C   0  0  0  0  0  0  0  0  0  0  0  0
    7.7780   71.5250   69.1980 O   0  0  0  0  0  0  0  0  0  0  0  0
   -0.7751   69.2624   64.7470 H   0  0  0  0  0  0  0  0  0  0  0  0
   -2.8170   68.8845   66.1321 H   0  0  0  0  0  0  0  0  0  0  0  0
   -2.6832   67.4678   68.1867 H   0  0  0  0  0  0  0  0  0  0  0  0
    1.5331   66.7940   67.4609 H   0  0  0  0  0  0  0  0  0  0  0  0
   -0.3552   63.4044   71.0696 H   0  0  0  0  0  0  0  0  0  0  0  0
   -0.9044   64.1531   69.5319 H   0  0  0  0  0  0  0  0  0  0  0  0
    0.4909   63.0219   69.5319 H   0  0  0  0  0  0  0  0  0  0  0  0
    2.0998   64.6303   71.9925 H   0  0  0  0  0  0  0  0  0  0  0  0
    2.4903   63.6134   70.5642 H   0  0  0  0  0  0  0  0  0  0  0  0
    2.9082   65.3604   70.5642 H   0  0  0  0  0  0  0  0  0  0  0  0
    2.1368   69.5845   67.5303 H   0  0  0  0  0  0  0  0  0  0  0  0
    3.8945   68.6658   65.1872 H   0  0  0  0  0  0  0  0  0  0  0  0
    5.5276   71.2249   70.4441 H   0  0  0  0  0  0  0  0  0  0  0  0
    3.4325   70.3071   69.4468 H   0  0  0  0  0  0  0  0  0  0  0  0
    5.4684   69.7884   65.6679 H   0  0  0  0  0  0  0  0  0  0  0  0
    7.5621   70.7099   66.6714 H   0  0  0  0  0  0  0  0  0  0  0  0
    8.6122   71.6170   68.6728 H   0  0  0  0  0  0  0  0  0  0  0  0
  2  1  2  0
  3  1  1  0
  4  3  2  0
  5  4  1  0
  6  5  2  0
  7  6  1  0
  8  7  2  0
  8  3  1  0
  9  7  1  0
 10  9  1  0
 11 10  2  0
 12 10  1  0
 13 12  1  0
 14 12  1  0
 16  1  1  0
 16 15  2  0
 18 17  2  0
 19 18  1  0
 20 15  1  0
 20 19  2  0
 21 20  1  0
 22 21  2  0
 22 17  1  0
 23 17  1  0
  4 24  1  0
  5 25  1  0
  6 26  1  0
  8 27  1  0
 13 28  1  0
 13 29  1  0
 13 30  1  0
 14 31  1  0
 14 32  1  0
 14 33  1  0
 15 34  1  0
 16 35  1  0
 18 36  1  0
 19 37  1  0
 21 38  1  0
 22 39  1  0
 23 40  1  0
M  END
>  <score>  (4) 
-9.625

$$$$
=
     RDKit          3D

 40 41  0  0  0  0  0  0  0  0999 V2000
    0.4300   66.0680   70.2020 C   0  0  0  0  0  0  0  0  0  0  0  0
   -0.3300   66.1930   71.1580 O   0  0  0  0  0  0  0  0  0  0  0  0
    0.1780   66.8190   68.9470 C   0  0  0  0  0  0  0  0  0  0  0  0
   -1.0970   66.7310   68.3680 C   0  0  0  0  0  0  0  0  0  0  0  0
   -1.3870   67.4260   67.1900 C   0  0  0  0  0  0  0  0  0  0  0  0
   -0.4110   68.2240   66.5970 C   0  0  0  0  0  0  0  0  0  0  0  0
    0.8410   68.3390   67.2010 C   0  0  0  0  0  0  0  0  0  0  0  0
    1.1520   67.6370   68.3660 C   0  0  0  0  0  0  0  0  0  0  0  0
    1.8020   69.1220   66.5460 O   0  0  0  0  0  0  0  0  0  0  0  0
    2.8160   69.6630   67.3350 C   0  0  0  0  0  0  0  0  0  0  0  0
    2.6320   70.1810   68.4330 O   0  0  0  0  0  0  0  0  0  0  0  0
    4.0680   69.5560   66.7380 N   0  0  0  0  0  0  0  0  0  0  0  0
    4.2490   69.1000   65.3710 C   0  0  0  0  0  0  0  0  0  0  0  0
    5.1980   70.2160   67.3640 C   0  0  0  0  0  0  0  0  0  0  0  0
    1.5050   63.8560   70.6460 C   0  0  0  0  0  0  0  0  0  0  0  0
    1.5980   65.1550   70.3210 C   0  0  0  0  0  0  0  0  0  0  0  0
    4.9330   61.3420   70.9970 C   0  0  0  0  0  0  0  0  0  0  0  0
    5.0820   62.7030   70.7640 C   0  0  0  0  0  0  0  0  0  0  0  0
    3.9510   63.5150   70.6560 C   0  0  0  0  0  0  0  0  0  0  0  0
    2.6680   62.9700   70.7940 C   0  0  0  0  0  0  0  0  0  0  0  0
    2.5380   61.5920   71.0140 C   0  0  0  0  0  0  0  0  0  0  0  0
    3.6690   60.7760   71.1210 C   0  0  0  0  0  0  0  0  0  0  0  0
    6.0630   60.5850   71.0940 O   0  0  0  0  0  0  0  0  0  0  0  0
   -1.8723   66.1121   68.8432 H   0  0  0  0  0  0  0  0  0  0  0  0
   -2.3838   67.3429   66.7323 H   0  0  0  0  0  0  0  0  0  0  0  0
   -0.6260   68.7590   65.6602 H   0  0  0  0  0  0  0  0  0  0  0  0
    2.1495   67.7258   68.8211 H   0  0  0  0  0  0  0  0  0  0  0  0
    4.6548   68.0776   65.3762 H   0  0  0  0  0  0  0  0  0  0  0  0
    3.2798   69.1072   64.8507 H   0  0  0  0  0  0  0  0  0  0  0  0
    4.9494   69.7699   64.8507 H   0  0  0  0  0  0  0  0  0  0  0  0
    5.0972   70.1571   68.4578 H   0  0  0  0  0  0  0  0  0  0  0  0
    6.1298   69.7201   67.0545 H   0  0  0  0  0  0  0  0  0  0  0  0
    5.2239   71.2712   67.0545 H   0  0  0  0  0  0  0  0  0  0  0  0
    0.5036   63.4315   70.8105 H   0  0  0  0  0  0  0  0  0  0  0  0
    2.5991   65.5695   70.1311 H   0  0  0  0  0  0  0  0  0  0  0  0
    6.0868   63.1396   70.6649 H   0  0  0  0  0  0  0  0  0  0  0  0
    4.0686   64.5912   70.4610 H   0  0  0  0  0  0  0  0  0  0  0  0
    1.5358   61.1474   71.1035 H   0  0  0  0  0  0  0  0  0  0  0  0
    3.5595   59.6965   71.3016 H   0  0  0  0  0  0  0  0  0  0  0  0
    5.9939   59.6114   71.2597 H   0  0  0  0  0  0  0  0  0  0  0  0
  2  1  2  0
  3  1  1  0
  4  3  2  0
  5  4  1  0
  6  5  2  0
  7  6  1  0
  8  7  2  0
  8  3  1  0
  9  7  1  0
 10  9  1  0
 11 10  2  0
 12 10  1  0
 13 12  1  0
 14 12  1  0
 16  1  1  0
 16 15  2  0
 18 17  2  0
 19 18  1  0
 20 15  1  0
 20 19  2  0
 21 20  1  0
 22 21  2  0
 22 17  1  0
 23 17  1  0
  4 24  1  0
  5 25  1  0
  6 26  1  0
  8 27  1  0
 13 28  1  0
 13 29  1  0
 13 30  1  0
 14 31  1  0
 14 32  1  0
 14 33  1  0
 15 34  1  0
 16 35  1  0
 18 36  1  0
 19 37  1  0
 21 38  1  0
 22 39  1  0
 23 40  1  0
M  END
>  <score>  (5) 
-9.584

$$$$
=
     RDKit          3D

 40 41  0  0  0  0  0  0  0  0999 V2000
    0.9890   64.1220   71.3140 C   0  0  0  0  0  0  0  0  0  0  0  0
    0.3110   64.0300   72.3350 O   0  0  0  0  0  0  0  0  0  0  0  0
    2.3080   63.4480   71.2350 C   0  0  0  0  0  0  0  0  0  0  0  0
    3.3190   64.0570   70.4760 C   0  0  0  0  0  0  0  0  0  0  0  0
    4.5810   63.4650   70.3770 C   0  0  0  0  0  0  0  0  0  0  0  0
    4.8440   62.2730   71.0490 C   0  0  0  0  0  0  0  0  0  0  0  0
    3.8470   61.6950   71.8350 C   0  0  0  0  0  0  0  0  0  0  0  0
    2.5760   62.2620   71.9280 C   0  0  0  0  0  0  0  0  0  0  0  0
    4.1460   60.4760   72.4590 O   0  0  0  0  0  0  0  0  0  0  0  0
    3.7610   59.3150   71.7890 C   0  0  0  0  0  0  0  0  0  0  0  0
    4.1200   59.0270   70.6510 O   0  0  0  0  0  0  0  0  0  0  0  0
    2.9180   58.5160   72.5530 N   0  0  0  0  0  0  0  0  0  0  0  0
    2.3650   58.9490   73.8250 C   0  0  0  0  0  0  0  0  0  0  0  0
    2.3050   57.3550   71.9330 C   0  0  0  0  0  0  0  0  0  0  0  0
    0.7360   66.2170   69.9760 C   0  0  0  0  0  0  0  0  0  0  0  0
    0.4690   64.9160   70.1700 C   0  0  0  0  0  0  0  0  0  0  0  0
   -0.8960   68.4020   66.6960 C   0  0  0  0  0  0  0  0  0  0  0  0
   -1.6220   67.3770   67.2860 C   0  0  0  0  0  0  0  0  0  0  0  0
   -1.0780   66.6730   68.3630 C   0  0  0  0  0  0  0  0  0  0  0  0
    0.1900   67.0010   68.8600 C   0  0  0  0  0  0  0  0  0  0  0  0
    0.9140   68.0290   68.2400 C   0  0  0  0  0  0  0  0  0  0  0  0
    0.3720   68.7340   67.1610 C   0  0  0  0  0  0  0  0  0  0  0  0
   -1.4630   69.0620   65.6470 O   0  0  0  0  0  0  0  0  0  0  0  0
    3.1171   65.0052   69.9563 H   0  0  0  0  0  0  0  0  0  0  0  0
    5.3657   63.9394   69.7694 H   0  0  0  0  0  0  0  0  0  0  0  0
    5.8293   61.7920   70.9605 H   0  0  0  0  0  0  0  0  0  0  0  0
    1.7952   61.7836   72.5375 H   0  0  0  0  0  0  0  0  0  0  0  0
    2.9403   58.4986   74.6473 H   0  0  0  0  0  0  0  0  0  0  0  0
    2.4217   60.0453   73.8953 H   0  0  0  0  0  0  0  0  0  0  0  0
    1.3143   58.6310   73.8953 H   0  0  0  0  0  0  0  0  0  0  0  0
    1.9434   56.6702   72.7142 H   0  0  0  0  0  0  0  0  0  0  0  0
    1.4593   57.6770   71.3075 H   0  0  0  0  0  0  0  0  0  0  0  0
    3.0478   56.8383   71.3075 H   0  0  0  0  0  0  0  0  0  0  0  0
    1.3999   66.7239   70.6917 H   0  0  0  0  0  0  0  0  0  0  0  0
   -0.1740   64.4061   69.4375 H   0  0  0  0  0  0  0  0  0  0  0  0
   -2.6221   67.1198   66.9070 H   0  0  0  0  0  0  0  0  0  0  0  0
   -1.6499   65.8545   68.8245 H   0  0  0  0  0  0  0  0  0  0  0  0
    1.9194   68.2838   68.6064 H   0  0  0  0  0  0  0  0  0  0  0  0
    0.9434   69.5440   66.6842 H   0  0  0  0  0  0  0  0  0  0  0  0
   -0.9731   69.7985   65.2025 H   0  0  0  0  0  0  0  0  0  0  0  0
  2  1  2  0
  3  1  1  0
  4  3  2  0
  5  4  1  0
  6  5  2  0
  7  6  1  0
  8  7  2  0
  8  3  1  0
  9  7  1  0
 10  9  1  0
 11 10  2  0
 12 10  1  0
 13 12  1  0
 14 12  1  0
 16  1  1  0
 16 15  2  0
 18 17  2  0
 19 18  1  0
 20 15  1  0
 20 19  2  0
 21 20  1  0
 22 21  2  0
 22 17  1  0
 23 17  1  0
  4 24  1  0
  5 25  1  0
  6 26  1  0
  8 27  1  0
 13 28  1  0
 13 29  1  0
 13 30  1  0
 14 31  1  0
 14 32  1  0
 14 33  1  0
 15 34  1  0
 16 35  1  0
 18 36  1  0
 19 37  1  0
 21 38  1  0
 22 39  1  0
 23 40  1  0
M  END
>  <score>  (6) 
-9.401

$$$$
=
     RDKit          3D

 40 41  0  0  0  0  0  0  0  0999 V2000
    0.3840   66.1060   70.1780 C   0  0  0  0  0  0  0  0  0  0  0  0
   -0.2680   66.3610   71.1870 O   0  0  0  0  0  0  0  0  0  0  0  0
    0.0040   66.7070   68.8760 C   0  0  0  0  0  0  0  0  0  0  0  0
   -1.3610   66.8250   68.5730 C   0  0  0  0  0  0  0  0  0  0  0  0
   -1.7690   67.3920   67.3630 C   0  0  0  0  0  0  0  0  0  0  0  0
   -0.8170   67.8580   66.4580 C   0  0  0  0  0  0  0  0  0  0  0  0
    0.5360   67.7750   66.7840 C   0  0  0  0  0  0  0  0  0  0  0  0
    0.9610   67.1940   67.9790 C   0  0  0  0  0  0  0  0  0  0  0  0
    1.4570   68.2210   65.8240 O   0  0  0  0  0  0  0  0  0  0  0  0
    1.9650   67.2630   64.9480 C   0  0  0  0  0  0  0  0  0  0  0  0
    1.5000   66.1340   64.8170 O   0  0  0  0  0  0  0  0  0  0  0  0
    3.0670   67.7250   64.2360 N   0  0  0  0  0  0  0  0  0  0  0  0
    3.7100   68.9950   64.5230 C   0  0  0  0  0  0  0  0  0  0  0  0
    3.8020   66.7910   63.4040 C   0  0  0  0  0  0  0  0  0  0  0  0
    1.4570   63.8910   70.6100 C   0  0  0  0  0  0  0  0  0  0  0  0
    1.5500   65.1890   70.2830 C   0  0  0  0  0  0  0  0  0  0  0  0
    4.8810   61.3650   70.9180 C   0  0  0  0  0  0  0  0  0  0  0  0
    5.0320   62.7260   70.6920 C   0  0  0  0  0  0  0  0  0  0  0  0
    3.9020   63.5430   70.5990 C   0  0  0  0  0  0  0  0  0  0  0  0
    2.6180   63.0010   70.7430 C   0  0  0  0  0  0  0  0  0  0  0  0
    2.4860   61.6210   70.9560 C   0  0  0  0  0  0  0  0  0  0  0  0
    3.6160   60.8020   71.0480 C   0  0  0  0  0  0  0  0  0  0  0  0
    6.0080   60.6040   71.0020 O   0  0  0  0  0  0  0  0  0  0  0  0
   -2.1138   66.4692   69.2919 H   0  0  0  0  0  0  0  0  0  0  0  0
   -2.8401   67.4705   67.1250 H   0  0  0  0  0  0  0  0  0  0  0  0
   -1.1304   68.2875   65.4950 H   0  0  0  0  0  0  0  0  0  0  0  0
    2.0333   67.1198   68.2127 H   0  0  0  0  0  0  0  0  0  0  0  0
    3.7798   69.1328   65.6121 H   0  0  0  0  0  0  0  0  0  0  0  0
    4.7199   69.0014   64.0872 H   0  0  0  0  0  0  0  0  0  0  0  0
    3.1174   69.8128   64.0872 H   0  0  0  0  0  0  0  0  0  0  0  0
    4.3556   66.0876   64.0433 H   0  0  0  0  0  0  0  0  0  0  0  0
    3.0981   66.2332   62.7689 H   0  0  0  0  0  0  0  0  0  0  0  0
    4.5097   67.3441   62.7689 H   0  0  0  0  0  0  0  0  0  0  0  0
    0.4564   63.4703   70.7883 H   0  0  0  0  0  0  0  0  0  0  0  0
    2.5500   65.6000   70.0802 H   0  0  0  0  0  0  0  0  0  0  0  0
    6.0373   63.1600   70.5865 H   0  0  0  0  0  0  0  0  0  0  0  0
    4.0216   64.6202   70.4112 H   0  0  0  0  0  0  0  0  0  0  0  0
    1.4836   61.1783   71.0517 H   0  0  0  0  0  0  0  0  0  0  0  0
    3.5051   59.7215   71.2217 H   0  0  0  0  0  0  0  0  0  0  0  0
    5.9366   59.6297   71.1625 H   0  0  0  0  0  0  0  0  0  0  0  0
  2  1  2  0
  3  1  1  0
  4  3  2  0
  5  4  1  0
  6  5  2  0
  7  6  1  0
  8  7  2  0
  8  3  1  0
  9  7  1  0
 10  9  1  0
 11 10  2  0
 12 10  1  0
 13 12  1  0
 14 12  1  0
 16  1  1  0
 16 15  2  0
 18 17  2  0
 19 18  1  0
 20 15  1  0
 20 19  2  0
 21 20  1  0
 22 21  2  0
 22 17  1  0
 23 17  1  0
  4 24  1  0
  5 25  1  0
  6 26  1  0
  8 27  1  0
 13 28  1  0
 13 29  1  0
 13 30  1  0
 14 31  1  0
 14 32  1  0
 14 33  1  0
 15 34  1  0
 16 35  1  0
 18 36  1  0
 19 37  1  0
 21 38  1  0
 22 39  1  0
 23 40  1  0
M  END
>  <score>  (7) 
-9.327

$$$$
=
     RDKit          3D

 40 41  0  0  0  0  0  0  0  0999 V2000
    0.2520   67.0960   68.6590 C   0  0  0  0  0  0  0  0  0  0  0  0
   -0.9560   67.2260   68.4780 O   0  0  0  0  0  0  0  0  0  0  0  0
    1.2150   67.7060   67.7110 C   0  0  0  0  0  0  0  0  0  0  0  0
    1.8940   68.8670   68.1100 C   0  0  0  0  0  0  0  0  0  0  0  0
    2.8170   69.4750   67.2540 C   0  0  0  0  0  0  0  0  0  0  0  0
    3.0790   68.9150   66.0060 C   0  0  0  0  0  0  0  0  0  0  0  0
    2.4310   67.7390   65.6320 C   0  0  0  0  0  0  0  0  0  0  0  0
    1.4920   67.1310   66.4660 C   0  0  0  0  0  0  0  0  0  0  0  0
    2.6980   67.2360   64.3500 O   0  0  0  0  0  0  0  0  0  0  0  0
    2.3980   68.0700   63.2740 C   0  0  0  0  0  0  0  0  0  0  0  0
    1.3590   68.7160   63.1720 O   0  0  0  0  0  0  0  0  0  0  0  0
    3.4090   68.0880   62.3180 N   0  0  0  0  0  0  0  0  0  0  0  0
    4.5500   67.1920   62.3660 C   0  0  0  0  0  0  0  0  0  0  0  0
    3.1730   68.7830   61.0660 C   0  0  0  0  0  0  0  0  0  0  0  0
    0.5000   65.0100   70.0120 C   0  0  0  0  0  0  0  0  0  0  0  0
    0.7270   66.3210   69.8360 C   0  0  0  0  0  0  0  0  0  0  0  0
    1.7660   62.9180   73.5080 C   0  0  0  0  0  0  0  0  0  0  0  0
    0.6410   63.7320   73.5460 C   0  0  0  0  0  0  0  0  0  0  0  0
    0.2350   64.4070   72.3930 C   0  0  0  0  0  0  0  0  0  0  0  0
    0.9460   64.2600   71.1940 C   0  0  0  0  0  0  0  0  0  0  0  0
    2.0880   63.4460   71.1810 C   0  0  0  0  0  0  0  0  0  0  0  0
    2.4970   62.7700   72.3350 C   0  0  0  0  0  0  0  0  0  0  0  0
    2.1280   62.2790   74.6560 O   0  0  0  0  0  0  0  0  0  0  0  0
    1.6991   69.3012   69.1017 H   0  0  0  0  0  0  0  0  0  0  0  0
    3.3353   70.3939   67.5655 H   0  0  0  0  0  0  0  0  0  0  0  0
    3.7918   69.3971   65.3208 H   0  0  0  0  0  0  0  0  0  0  0  0
    0.9767   66.2123   66.1490 H   0  0  0  0  0  0  0  0  0  0  0  0
    4.8112   66.9869   63.4146 H   0  0  0  0  0  0  0  0  0  0  0  0
    4.2970   66.2487   61.8599 H   0  0  0  0  0  0  0  0  0  0  0  0
    5.4064   67.6615   61.8599 H   0  0  0  0  0  0  0  0  0  0  0  0
    2.8257   69.8058   61.2742 H   0  0  0  0  0  0  0  0  0  0  0  0
    4.1077   68.8238   60.4874 H   0  0  0  0  0  0  0  0  0  0  0  0
    2.4068   68.2462   60.4874 H   0  0  0  0  0  0  0  0  0  0  0  0
   -0.0498   64.4676   69.2288 H   0  0  0  0  0  0  0  0  0  0  0  0
    1.2991   66.8546   70.6093 H   0  0  0  0  0  0  0  0  0  0  0  0
    0.0722   63.8444   74.4808 H   0  0  0  0  0  0  0  0  0  0  0  0
   -0.6500   65.0594   72.4259 H   0  0  0  0  0  0  0  0  0  0  0  0
    2.6684   63.3380   70.2529 H   0  0  0  0  0  0  0  0  0  0  0  0
    3.3892   62.1269   72.3146 H   0  0  0  0  0  0  0  0  0  0  0  0
    2.9244   61.6910   74.6652 H   0  0  0  0  0  0  0  0  0  0  0  0
  2  1  2  0
  3  1  1  0
  4  3  2  0
  5  4  1  0
  6  5  2  0
  7  6  1  0
  8  7  2  0
  8  3  1  0
  9  7  1  0
 10  9  1  0
 11 10  2  0
 12 10  1  0
 13 12  1  0
 14 12  1  0
 16  1  1  0
 16 15  2  0
 18 17  2  0
 19 18  1  0
 20 15  1  0
 20 19  2  0
 21 20  1  0
 22 21  2  0
 22 17  1  0
 23 17  1  0
  4 24  1  0
  5 25  1  0
  6 26  1  0
  8 27  1  0
 13 28  1  0
 13 29  1  0
 13 30  1  0
 14 31  1  0
 14 32  1  0
 14 33  1  0
 15 34  1  0
 16 35  1  0
 18 36  1  0
 19 37  1  0
 21 38  1  0
 22 39  1  0
 23 40  1  0
M  END
>  <score>  (8) 
-8.842

$$$$
=
     RDKit          3D

 40 41  0  0  0  0  0  0  0  0999 V2000
    0.4240   65.5900   70.8230 C   0  0  0  0  0  0  0  0  0  0  0  0
   -0.2450   65.9350   71.7940 O   0  0  0  0  0  0  0  0  0  0  0  0
    1.2950   64.3920   70.9070 C   0  0  0  0  0  0  0  0  0  0  0  0
    2.5720   64.4600   70.3290 C   0  0  0  0  0  0  0  0  0  0  0  0
    3.4330   63.3600   70.3890 C   0  0  0  0  0  0  0  0  0  0  0  0
    3.0290   62.1970   71.0420 C   0  0  0  0  0  0  0  0  0  0  0  0
    1.7750   62.1520   71.6490 C   0  0  0  0  0  0  0  0  0  0  0  0
    0.8960   63.2330   71.5810 C   0  0  0  0  0  0  0  0  0  0  0  0
    1.3980   60.9460   72.2580 O   0  0  0  0  0  0  0  0  0  0  0  0
    2.0750   60.5930   73.4250 C   0  0  0  0  0  0  0  0  0  0  0  0
    2.2150   61.3370   74.3910 O   0  0  0  0  0  0  0  0  0  0  0  0
    2.5810   59.2980   73.3740 N   0  0  0  0  0  0  0  0  0  0  0  0
    2.5580   58.4940   72.1660 C   0  0  0  0  0  0  0  0  0  0  0  0
    3.4460   58.8450   74.4470 C   0  0  0  0  0  0  0  0  0  0  0  0
   -0.7470   66.4690   68.7980 C   0  0  0  0  0  0  0  0  0  0  0  0
    0.3470   66.3900   69.5720 C   0  0  0  0  0  0  0  0  0  0  0  0
   -0.8050   68.7320   65.1820 C   0  0  0  0  0  0  0  0  0  0  0  0
    0.3590   68.0980   65.5930 C   0  0  0  0  0  0  0  0  0  0  0  0
    0.3630   67.3550   66.7770 C   0  0  0  0  0  0  0  0  0  0  0  0
   -0.8020   67.2360   67.5460 C   0  0  0  0  0  0  0  0  0  0  0  0
   -1.9640   67.8970   67.1210 C   0  0  0  0  0  0  0  0  0  0  0  0
   -1.9690   68.6420   65.9370 C   0  0  0  0  0  0  0  0  0  0  0  0
   -0.7650   69.4470   64.0220 O   0  0  0  0  0  0  0  0  0  0  0  0
    2.8971   65.3829   69.8264 H   0  0  0  0  0  0  0  0  0  0  0  0
    4.4274   63.4125   69.9217 H   0  0  0  0  0  0  0  0  0  0  0  0
    3.6943   61.3217   71.0781 H   0  0  0  0  0  0  0  0  0  0  0  0
   -0.0969   63.1749   72.0508 H   0  0  0  0  0  0  0  0  0  0  0  0
    2.5275   57.4280   72.4356 H   0  0  0  0  0  0  0  0  0  0  0  0
    1.6668   58.7480   71.5734 H   0  0  0  0  0  0  0  0  0  0  0  0
    3.4623   58.6966   71.5734 H   0  0  0  0  0  0  0  0  0  0  0  0
    2.9851   59.0864   75.4162 H   0  0  0  0  0  0  0  0  0  0  0  0
    3.5877   57.7569   74.3692 H   0  0  0  0  0  0  0  0  0  0  0  0
    4.4210   59.3482   74.3692 H   0  0  0  0  0  0  0  0  0  0  0  0
   -1.6510   65.9304   69.1184 H   0  0  0  0  0  0  0  0  0  0  0  0
    1.2408   66.9512   69.2619 H   0  0  0  0  0  0  0  0  0  0  0  0
    1.2750   68.1798   64.9894 H   0  0  0  0  0  0  0  0  0  0  0  0
    1.2880   66.8599   67.1075 H   0  0  0  0  0  0  0  0  0  0  0  0
   -2.8808   67.8288   67.7250 H   0  0  0  0  0  0  0  0  0  0  0  0
   -2.8857   69.1521   65.6063 H   0  0  0  0  0  0  0  0  0  0  0  0
   -1.5770   69.9121   63.6989 H   0  0  0  0  0  0  0  0  0  0  0  0
  2  1  2  0
  3  1  1  0
  4  3  2  0
  5  4  1  0
  6  5  2  0
  7  6  1  0
  8  7  2  0
  8  3  1  0
  9  7  1  0
 10  9  1  0
 11 10  2  0
 12 10  1  0
 13 12  1  0
 14 12  1  0
 16  1  1  0
 16 15  2  0
 18 17  2  0
 19 18  1  0
 20 15  1  0
 20 19  2  0
 21 20  1  0
 22 21  2  0
 22 17  1  0
 23 17  1  0
  4 24  1  0
  5 25  1  0
  6 26  1  0
  8 27  1  0
 13 28  1  0
 13 29  1  0
 13 30  1  0
 14 31  1  0
 14 32  1  0
 14 33  1  0
 15 34  1  0
 16 35  1  0
 18 36  1  0
 19 37  1  0
 21 38  1  0
 22 39  1  0
 23 40  1  0
M  END
>  <score>  (9) 
-8.658

$$$$
