=
     RDKit          3D

 39 41  0  0  0  0  0  0  0  0999 V2000
    2.0950   67.5210   64.9260 C   0  0  2  0  0  0  0  0  0  0  0  0
    2.9680   66.3330   64.5320 C   0  0  0  0  0  0  0  0  0  0  0  0
    2.9890   65.1740   65.3380 C   0  0  0  0  0  0  0  0  0  0  0  0
    3.7680   64.0660   64.9940 C   0  0  0  0  0  0  0  0  0  0  0  0
    4.5310   64.0920   63.8330 C   0  0  0  0  0  0  0  0  0  0  0  0
    4.5160   65.2130   63.0090 C   0  0  0  0  0  0  0  0  0  0  0  0
    3.7360   66.3230   63.3520 C   0  0  0  0  0  0  0  0  0  0  0  0
    3.7490   67.6510   62.2460 Cl  0  0  0  0  0  0  0  0  0  0  0  0
    5.4900   62.7300   63.4080 Cl  0  0  0  0  0  0  0  0  0  0  0  0
    3.0870   69.0830   65.0280 S   0  0  0  0  0  0  0  0  0  0  0  0
    2.9580   69.4350   66.8120 C   0  0  0  0  0  0  0  0  0  0  0  0
    8.0530   71.3370   69.4310 Cl  0  0  0  0  0  0  0  0  0  0  0  0
    6.6030   70.8030   68.6730 C   0  0  0  0  0  0  0  0  0  0  0  0
    6.6430   70.2940   67.3780 C   0  0  0  0  0  0  0  0  0  0  0  0
    5.4650   69.8640   66.7640 C   0  0  0  0  0  0  0  0  0  0  0  0
    4.2400   69.9150   67.4490 C   0  0  0  0  0  0  0  0  0  0  0  0
    4.2170   70.4490   68.7480 C   0  0  0  0  0  0  0  0  0  0  0  0
    5.3940   70.8870   69.3580 C   0  0  0  0  0  0  0  0  0  0  0  0
    1.3680   67.2410   66.2580 C   0  0  0  0  0  0  0  0  0  0  0  0
   -0.0140   67.6840   66.2710 N   0  0  0  0  0  0  0  0  0  0  0  0
   -1.0020   67.2010   67.0810 C   0  0  0  0  0  0  0  0  0  0  0  0
   -2.1440   67.8140   66.8600 N   0  0  0  0  0  0  0  0  0  0  0  0
   -1.8770   68.7340   65.8800 C   0  0  0  0  0  0  0  0  0  0  0  0
   -0.5560   68.6760   65.5030 C   0  0  0  0  0  0  0  0  0  0  0  0
    1.3377   67.6604   64.1404 H   0  0  0  0  0  0  0  0  0  0  0  0
    2.3807   65.1426   66.2540 H   0  0  0  0  0  0  0  0  0  0  0  0
    3.7771   63.1760   65.6403 H   0  0  0  0  0  0  0  0  0  0  0  0
    5.1173   65.2267   62.0880 H   0  0  0  0  0  0  0  0  0  0  0  0
    2.1917   70.2112   66.9547 H   0  0  0  0  0  0  0  0  0  0  0  0
    2.7023   68.4836   67.3013 H   0  0  0  0  0  0  0  0  0  0  0  0
    7.6002   70.2307   66.8397 H   0  0  0  0  0  0  0  0  0  0  0  0
    5.4967   69.4814   65.7332 H   0  0  0  0  0  0  0  0  0  0  0  0
    3.2625   70.5228   69.2898 H   0  0  0  0  0  0  0  0  0  0  0  0
    5.3661   71.2977   70.3781 H   0  0  0  0  0  0  0  0  0  0  0  0
    1.3872   66.1569   66.4433 H   0  0  0  0  0  0  0  0  0  0  0  0
    1.8956   67.8088   67.0385 H   0  0  0  0  0  0  0  0  0  0  0  0
   -0.8604   66.4016   67.8232 H   0  0  0  0  0  0  0  0  0  0  0  0
   -2.6188   69.4250   65.4530 H   0  0  0  0  0  0  0  0  0  0  0  0
   -0.0467   69.2932   64.7482 H   0  0  0  0  0  0  0  0  0  0  0  0
  2  1  1  0
  3  2  2  0
  4  3  1  0
  5  4  2  0
  6  5  1  0
  7  6  2  0
  7  2  1  0
  8  7  1  0
  9  5  1  0
 10  1  1  0
 11 10  1  0
 13 12  1  0
 14 13  2  0
 15 14  1  0
 16 11  1  0
 16 15  2  0
 17 16  1  0
 18 17  2  0
 18 13  1  0
 19  1  1  0
 20 19  1  0
 21 20  1  0
 22 21  2  0
 23 22  1  0
 24 23  2  0
 24 20  1  0
  1 25  1  6
  3 26  1  0
  4 27  1  0
  6 28  1  0
 11 29  1  0
 11 30  1  0
 14 31  1  0
 15 32  1  0
 17 33  1  0
 18 34  1  0
 19 35  1  0
 19 36  1  0
 21 37  1  0
 23 38  1  0
 24 39  1  0
M  END
>  <score>  (1) 
-10.235

$$$$
=
     RDKit          3D

 39 41  0  0  0  0  0  0  0  0999 V2000
    2.2280   67.5990   65.1850 C   0  0  2  0  0  0  0  0  0  0  0  0
    0.7670   67.9880   65.3850 C   0  0  0  0  0  0  0  0  0  0  0  0
    0.0380   68.5630   64.3220 C   0  0  0  0  0  0  0  0  0  0  0  0
   -1.3060   68.9150   64.4720 C   0  0  0  0  0  0  0  0  0  0  0  0
   -1.9490   68.6880   65.6830 C   0  0  0  0  0  0  0  0  0  0  0  0
   -1.2620   68.1050   66.7420 C   0  0  0  0  0  0  0  0  0  0  0  0
    0.0840   67.7520   66.5940 C   0  0  0  0  0  0  0  0  0  0  0  0
    0.8410   66.9960   67.9510 Cl  0  0  0  0  0  0  0  0  0  0  0  0
   -3.6020   69.1210   65.8680 Cl  0  0  0  0  0  0  0  0  0  0  0  0
    3.3320   69.0880   65.2120 S   0  0  0  0  0  0  0  0  0  0  0  0
    3.1540   69.5940   66.9540 C   0  0  0  0  0  0  0  0  0  0  0  0
    8.2580   71.3720   69.6410 Cl  0  0  0  0  0  0  0  0  0  0  0  0
    6.8060   70.8750   68.8640 C   0  0  0  0  0  0  0  0  0  0  0  0
    6.8310   70.4850   67.5290 C   0  0  0  0  0  0  0  0  0  0  0  0
    5.6500   70.0830   66.9000 C   0  0  0  0  0  0  0  0  0  0  0  0
    4.4380   70.0460   67.6090 C   0  0  0  0  0  0  0  0  0  0  0  0
    4.4290   70.4610   68.9500 C   0  0  0  0  0  0  0  0  0  0  0  0
    5.6090   70.8690   69.5760 C   0  0  0  0  0  0  0  0  0  0  0  0
    2.4040   66.8050   63.8740 C   0  0  0  0  0  0  0  0  0  0  0  0
    3.3490   65.7090   63.9790 N   0  0  0  0  0  0  0  0  0  0  0  0
    4.5080   65.5790   63.2680 C   0  0  0  0  0  0  0  0  0  0  0  0
    5.1510   64.4810   63.5980 N   0  0  0  0  0  0  0  0  0  0  0  0
    4.3830   63.8890   64.5670 C   0  0  0  0  0  0  0  0  0  0  0  0
    3.2600   64.6390   64.8250 C   0  0  0  0  0  0  0  0  0  0  0  0
    2.5238   66.9515   66.0236 H   0  0  0  0  0  0  0  0  0  0  0  0
    0.5371   68.7373   63.3574 H   0  0  0  0  0  0  0  0  0  0  0  0
   -1.8536   69.3706   63.6338 H   0  0  0  0  0  0  0  0  0  0  0  0
   -1.7768   67.9212   67.6966 H   0  0  0  0  0  0  0  0  0  0  0  0
    2.4344   70.4248   66.9987 H   0  0  0  0  0  0  0  0  0  0  0  0
    2.8177   68.7038   67.5057 H   0  0  0  0  0  0  0  0  0  0  0  0
    7.7783   70.4931   66.9699 H   0  0  0  0  0  0  0  0  0  0  0  0
    5.6695   69.7926   65.8392 H   0  0  0  0  0  0  0  0  0  0  0  0
    3.4840   70.4649   69.5129 H   0  0  0  0  0  0  0  0  0  0  0  0
    5.5930   71.1850   70.6295 H   0  0  0  0  0  0  0  0  0  0  0  0
    1.4261   66.3939   63.5829 H   0  0  0  0  0  0  0  0  0  0  0  0
    2.8045   67.5045   63.1255 H   0  0  0  0  0  0  0  0  0  0  0  0
    4.8585   66.3008   62.5155 H   0  0  0  0  0  0  0  0  0  0  0  0
    4.6314   62.9427   65.0697 H   0  0  0  0  0  0  0  0  0  0  0  0
    2.4638   64.4248   65.5531 H   0  0  0  0  0  0  0  0  0  0  0  0
  2  1  1  0
  3  2  2  0
  4  3  1  0
  5  4  2  0
  6  5  1  0
  7  6  2  0
  7  2  1  0
  8  7  1  0
  9  5  1  0
 10  1  1  0
 11 10  1  0
 13 12  1  0
 14 13  2  0
 15 14  1  0
 16 11  1  0
 16 15  2  0
 17 16  1  0
 18 17  2  0
 18 13  1  0
 19  1  1  0
 20 19  1  0
 21 20  1  0
 22 21  2  0
 23 22  1  0
 24 23  2  0
 24 20  1  0
  1 25  1  1
  3 26  1  0
  4 27  1  0
  6 28  1  0
 11 29  1  0
 11 30  1  0
 14 31  1  0
 15 32  1  0
 17 33  1  0
 18 34  1  0
 19 35  1  0
 19 36  1  0
 21 37  1  0
 23 38  1  0
 24 39  1  0
M  END
>  <score>  (2) 
-9.793

$$$$
=
     RDKit          3D

 39 41  0  0  0  0  0  0  0  0999 V2000
    2.1230   67.8890   65.1700 C   0  0  2  0  0  0  0  0  0  0  0  0
    2.9790   66.6950   64.7570 C   0  0  0  0  0  0  0  0  0  0  0  0
    2.5070   65.3820   64.9670 C   0  0  0  0  0  0  0  0  0  0  0  0
    3.2620   64.2700   64.5860 C   0  0  0  0  0  0  0  0  0  0  0  0
    4.4980   64.4510   63.9770 C   0  0  0  0  0  0  0  0  0  0  0  0
    4.9810   65.7340   63.7390 C   0  0  0  0  0  0  0  0  0  0  0  0
    4.2260   66.8470   64.1200 C   0  0  0  0  0  0  0  0  0  0  0  0
    4.8900   68.3990   63.7460 Cl  0  0  0  0  0  0  0  0  0  0  0  0
    5.4280   63.0840   63.5070 Cl  0  0  0  0  0  0  0  0  0  0  0  0
    1.8740   67.9380   67.0060 S   0  0  0  0  0  0  0  0  0  0  0  0
    2.1840   69.7050   67.3300 C   0  0  0  0  0  0  0  0  0  0  0  0
    7.7400   70.9260   69.3520 Cl  0  0  0  0  0  0  0  0  0  0  0  0
    6.1580   70.5870   68.7640 C   0  0  0  0  0  0  0  0  0  0  0  0
    5.9810   70.1680   67.4490 C   0  0  0  0  0  0  0  0  0  0  0  0
    4.6960   69.8950   66.9740 C   0  0  0  0  0  0  0  0  0  0  0  0
    3.5800   70.0160   67.8170 C   0  0  0  0  0  0  0  0  0  0  0  0
    3.7770   70.4570   69.1360 C   0  0  0  0  0  0  0  0  0  0  0  0
    5.0610   70.7370   69.6070 C   0  0  0  0  0  0  0  0  0  0  0  0
    0.7700   67.8680   64.4300 C   0  0  0  0  0  0  0  0  0  0  0  0
    0.7800   68.6000   63.1770 N   0  0  0  0  0  0  0  0  0  0  0  0
    1.8130   68.6480   62.2850 C   0  0  0  0  0  0  0  0  0  0  0  0
    1.5100   69.3870   61.2410 N   0  0  0  0  0  0  0  0  0  0  0  0
    0.2290   69.8210   61.4650 C   0  0  0  0  0  0  0  0  0  0  0  0
   -0.2480   69.3380   62.6600 C   0  0  0  0  0  0  0  0  0  0  0  0
    2.6598   68.8056   64.8840 H   0  0  0  0  0  0  0  0  0  0  0  0
    1.5254   65.2310   65.4399 H   0  0  0  0  0  0  0  0  0  0  0  0
    2.8795   63.2547   64.7674 H   0  0  0  0  0  0  0  0  0  0  0  0
    5.9571   65.8725   63.2510 H   0  0  0  0  0  0  0  0  0  0  0  0
    2.0139   70.2608   66.3961 H   0  0  0  0  0  0  0  0  0  0  0  0
    1.4975   70.0008   68.1370 H   0  0  0  0  0  0  0  0  0  0  0  0
    6.8505   70.0521   66.7853 H   0  0  0  0  0  0  0  0  0  0  0  0
    4.5572   69.5820   65.9287 H   0  0  0  0  0  0  0  0  0  0  0  0
    2.9119   70.5828   69.8037 H   0  0  0  0  0  0  0  0  0  0  0  0
    5.2055   71.0759   70.6435 H   0  0  0  0  0  0  0  0  0  0  0  0
    0.5057   66.8213   64.2188 H   0  0  0  0  0  0  0  0  0  0  0  0
    0.0371   68.3615   65.0852 H   0  0  0  0  0  0  0  0  0  0  0  0
    2.7757   68.1339   62.4226 H   0  0  0  0  0  0  0  0  0  0  0  0
   -0.3399   70.4680   60.7811 H   0  0  0  0  0  0  0  0  0  0  0  0
   -1.2402   69.5081   63.1035 H   0  0  0  0  0  0  0  0  0  0  0  0
  2  1  1  0
  3  2  2  0
  4  3  1  0
  5  4  2  0
  6  5  1  0
  7  6  2  0
  7  2  1  0
  8  7  1  0
  9  5  1  0
 10  1  1  0
 11 10  1  0
 13 12  1  0
 14 13  2  0
 15 14  1  0
 16 11  1  0
 16 15  2  0
 17 16  1  0
 18 17  2  0
 18 13  1  0
 19  1  1  0
 20 19  1  0
 21 20  1  0
 22 21  2  0
 23 22  1  0
 24 23  2  0
 24 20  1  0
  1 25  1  6
  3 26  1  0
  4 27  1  0
  6 28  1  0
 11 29  1  0
 11 30  1  0
 14 31  1  0
 15 32  1  0
 17 33  1  0
 18 34  1  0
 19 35  1  0
 19 36  1  0
 21 37  1  0
 23 38  1  0
 24 39  1  0
M  END
>  <score>  (3) 
-9.777

$$$$
=
     RDKit          3D

 39 41  0  0  0  0  0  0  0  0999 V2000
    2.5340   67.8180   65.0070 C   0  0  2  0  0  0  0  0  0  0  0  0
    1.7870   68.4070   63.8140 C   0  0  0  0  0  0  0  0  0  0  0  0
    2.4460   68.5630   62.5760 C   0  0  0  0  0  0  0  0  0  0  0  0
    1.7830   69.0860   61.4620 C   0  0  0  0  0  0  0  0  0  0  0  0
    0.4460   69.4520   61.5640 C   0  0  0  0  0  0  0  0  0  0  0  0
   -0.2350   69.2920   62.7660 C   0  0  0  0  0  0  0  0  0  0  0  0
    0.4270   68.7680   63.8810 C   0  0  0  0  0  0  0  0  0  0  0  0
   -0.5120   68.5680   65.3180 Cl  0  0  0  0  0  0  0  0  0  0  0  0
   -0.3710   70.0950   60.1950 Cl  0  0  0  0  0  0  0  0  0  0  0  0
    2.6980   69.0550   66.3770 S   0  0  0  0  0  0  0  0  0  0  0  0
    4.2860   69.8300   65.9280 C   0  0  0  0  0  0  0  0  0  0  0  0
    7.8300   71.0240   70.6660 Cl  0  0  0  0  0  0  0  0  0  0  0  0
    6.8260   70.6950   69.3080 C   0  0  0  0  0  0  0  0  0  0  0  0
    7.3950   70.5160   68.0510 C   0  0  0  0  0  0  0  0  0  0  0  0
    6.5770   70.2510   66.9500 C   0  0  0  0  0  0  0  0  0  0  0  0
    5.1860   70.1380   67.1010 C   0  0  0  0  0  0  0  0  0  0  0  0
    4.6280   70.3400   68.3740 C   0  0  0  0  0  0  0  0  0  0  0  0
    5.4460   70.6120   69.4730 C   0  0  0  0  0  0  0  0  0  0  0  0
    3.9160   67.2890   64.5730 C   0  0  0  0  0  0  0  0  0  0  0  0
    3.9320   65.8660   64.2870 N   0  0  0  0  0  0  0  0  0  0  0  0
    4.5200   65.2720   63.2060 C   0  0  0  0  0  0  0  0  0  0  0  0
    4.3700   63.9670   63.2370 N   0  0  0  0  0  0  0  0  0  0  0  0
    3.6690   63.7110   64.3870 C   0  0  0  0  0  0  0  0  0  0  0  0
    3.3920   64.8770   65.0600 C   0  0  0  0  0  0  0  0  0  0  0  0
    1.9450   66.9727   65.3924 H   0  0  0  0  0  0  0  0  0  0  0  0
    3.5017   68.2674   62.4858 H   0  0  0  0  0  0  0  0  0  0  0  0
    2.3174   69.2074   60.5082 H   0  0  0  0  0  0  0  0  0  0  0  0
   -1.2947   69.5777   62.8398 H   0  0  0  0  0  0  0  0  0  0  0  0
    4.8228   69.1473   65.2529 H   0  0  0  0  0  0  0  0  0  0  0  0
    4.0420   70.7946   65.4590 H   0  0  0  0  0  0  0  0  0  0  0  0
    8.4857   70.5829   67.9245 H   0  0  0  0  0  0  0  0  0  0  0  0
    7.0278   70.1296   65.9540 H   0  0  0  0  0  0  0  0  0  0  0  0
    3.5375   70.2835   68.5066 H   0  0  0  0  0  0  0  0  0  0  0  0
    5.0005   70.7605   70.4677 H   0  0  0  0  0  0  0  0  0  0  0  0
    4.2256   67.8291   63.6661 H   0  0  0  0  0  0  0  0  0  0  0  0
    4.6033   67.4556   65.4155 H   0  0  0  0  0  0  0  0  0  0  0  0
    5.0510   65.8167   62.4114 H   0  0  0  0  0  0  0  0  0  0  0  0
    3.3689   62.7083   64.7253 H   0  0  0  0  0  0  0  0  0  0  0  0
    2.8534   64.9894   66.0125 H   0  0  0  0  0  0  0  0  0  0  0  0
  2  1  1  0
  3  2  2  0
  4  3  1  0
  5  4  2  0
  6  5  1  0
  7  6  2  0
  7  2  1  0
  8  7  1  0
  9  5  1  0
 10  1  1  0
 11 10  1  0
 13 12  1  0
 14 13  2  0
 15 14  1  0
 16 11  1  0
 16 15  2  0
 17 16  1  0
 18 17  2  0
 18 13  1  0
 19  1  1  0
 20 19  1  0
 21 20  1  0
 22 21  2  0
 23 22  1  0
 24 23  2  0
 24 20  1  0
  1 25  1  1
  3 26  1  0
  4 27  1  0
  6 28  1  0
 11 29  1  0
 11 30  1  0
 14 31  1  0
 15 32  1  0
 17 33  1  0
 18 34  1  0
 19 35  1  0
 19 36  1  0
 21 37  1  0
 23 38  1  0
 24 39  1  0
M  END
>  <score>  (4) 
-9.566

$$$$
=
     RDKit          3D

 39 41  0  0  0  0  0  0  0  0999 V2000
    2.9380   69.0250   66.7850 C   0  0  2  0  0  0  0  0  0  0  0  0
    4.1840   69.6870   67.3660 C   0  0  0  0  0  0  0  0  0  0  0  0
    4.1400   70.2690   68.6500 C   0  0  0  0  0  0  0  0  0  0  0  0
    5.2700   70.8690   69.2130 C   0  0  0  0  0  0  0  0  0  0  0  0
    6.4660   70.8880   68.5060 C   0  0  0  0  0  0  0  0  0  0  0  0
    6.5450   70.3060   67.2460 C   0  0  0  0  0  0  0  0  0  0  0  0
    5.4150   69.7050   66.6810 C   0  0  0  0  0  0  0  0  0  0  0  0
    5.6200   68.9720   65.1290 Cl  0  0  0  0  0  0  0  0  0  0  0  0
    7.8560   71.6260   69.1980 Cl  0  0  0  0  0  0  0  0  0  0  0  0
    2.7600   69.3920   64.9770 S   0  0  0  0  0  0  0  0  0  0  0  0
    1.8800   67.8940   64.4250 C   0  0  0  0  0  0  0  0  0  0  0  0
    5.3740   63.0530   63.5380 Cl  0  0  0  0  0  0  0  0  0  0  0  0
    4.3900   64.4410   63.7920 C   0  0  0  0  0  0  0  0  0  0  0  0
    4.5640   65.5700   62.9970 C   0  0  0  0  0  0  0  0  0  0  0  0
    3.7650   66.6970   63.2070 C   0  0  0  0  0  0  0  0  0  0  0  0
    2.7690   66.6940   64.1970 C   0  0  0  0  0  0  0  0  0  0  0  0
    2.6210   65.5530   65.0010 C   0  0  0  0  0  0  0  0  0  0  0  0
    3.4250   64.4300   64.7960 C   0  0  0  0  0  0  0  0  0  0  0  0
    1.6790   69.4630   67.5620 C   0  0  0  0  0  0  0  0  0  0  0  0
    0.7270   68.3900   67.7790 N   0  0  0  0  0  0  0  0  0  0  0  0
    0.8910   67.3310   68.6260 C   0  0  0  0  0  0  0  0  0  0  0  0
   -0.1550   66.5350   68.6070 N   0  0  0  0  0  0  0  0  0  0  0  0
   -1.0310   67.1110   67.7230 C   0  0  0  0  0  0  0  0  0  0  0  0
   -0.5060   68.2690   67.2010 C   0  0  0  0  0  0  0  0  0  0  0  0
    3.0515   67.9362   66.8934 H   0  0  0  0  0  0  0  0  0  0  0  0
    3.1988   70.2504   69.2190 H   0  0  0  0  0  0  0  0  0  0  0  0
    5.2126   71.3247   70.2125 H   0  0  0  0  0  0  0  0  0  0  0  0
    7.4960   70.3180   66.6932 H   0  0  0  0  0  0  0  0  0  0  0  0
    1.1364   67.6302   65.1915 H   0  0  0  0  0  0  0  0  0  0  0  0
    1.4271   68.1374   63.4525 H   0  0  0  0  0  0  0  0  0  0  0  0
    5.3281   65.5752   62.2058 H   0  0  0  0  0  0  0  0  0  0  0  0
    3.9177   67.5953   62.5908 H   0  0  0  0  0  0  0  0  0  0  0  0
    1.8648   65.5435   65.7998 H   0  0  0  0  0  0  0  0  0  0  0  0
    3.2964   63.5379   65.4266 H   0  0  0  0  0  0  0  0  0  0  0  0
    1.9931   69.8525   68.5416 H   0  0  0  0  0  0  0  0  0  0  0  0
    1.1723   70.2248   66.9514 H   0  0  0  0  0  0  0  0  0  0  0  0
    1.7848   67.1653   69.2453 H   0  0  0  0  0  0  0  0  0  0  0  0
   -2.0194   66.7019   67.4666 H   0  0  0  0  0  0  0  0  0  0  0  0
   -0.9756   68.9501   66.4760 H   0  0  0  0  0  0  0  0  0  0  0  0
  2  1  1  0
  3  2  2  0
  4  3  1  0
  5  4  2  0
  6  5  1  0
  7  6  2  0
  7  2  1  0
  8  7  1  0
  9  5  1  0
 10  1  1  0
 11 10  1  0
 13 12  1  0
 14 13  2  0
 15 14  1  0
 16 11  1  0
 16 15  2  0
 17 16  1  0
 18 17  2  0
 18 13  1  0
 19  1  1  0
 20 19  1  0
 21 20  1  0
 22 21  2  0
 23 22  1  0
 24 23  2  0
 24 20  1  0
  1 25  1  6
  3 26  1  0
  4 27  1  0
  6 28  1  0
 11 29  1  0
 11 30  1  0
 14 31  1  0
 15 32  1  0
 17 33  1  0
 18 34  1  0
 19 35  1  0
 19 36  1  0
 21 37  1  0
 23 38  1  0
 24 39  1  0
M  END
>  <score>  (5) 
-9.473

$$$$
=
     RDKit          3D

 39 41  0  0  0  0  0  0  0  0999 V2000
    2.9040   68.9710   65.6230 C   0  0  2  0  0  0  0  0  0  0  0  0
    4.0080   69.5300   66.5160 C   0  0  0  0  0  0  0  0  0  0  0  0
    5.3560   69.4510   66.1060 C   0  0  0  0  0  0  0  0  0  0  0  0
    6.3860   69.9670   66.8960 C   0  0  0  0  0  0  0  0  0  0  0  0
    6.0860   70.5820   68.1060 C   0  0  0  0  0  0  0  0  0  0  0  0
    4.7650   70.6920   68.5280 C   0  0  0  0  0  0  0  0  0  0  0  0
    3.7330   70.1760   67.7370 C   0  0  0  0  0  0  0  0  0  0  0  0
    2.1230   70.3960   68.3250 Cl  0  0  0  0  0  0  0  0  0  0  0  0
    7.3520   71.2180   69.0790 Cl  0  0  0  0  0  0  0  0  0  0  0  0
    2.4260   67.2550   66.1360 S   0  0  0  0  0  0  0  0  0  0  0  0
    1.3580   67.6290   67.5660 C   0  0  0  0  0  0  0  0  0  0  0  0
   -4.4420   68.4830   66.1260 Cl  0  0  0  0  0  0  0  0  0  0  0  0
   -2.7920   68.2380   66.5500 C   0  0  0  0  0  0  0  0  0  0  0  0
   -2.4290   67.1360   67.3180 C   0  0  0  0  0  0  0  0  0  0  0  0
   -1.0890   66.9410   67.6630 C   0  0  0  0  0  0  0  0  0  0  0  0
   -0.0990   67.8330   67.2230 C   0  0  0  0  0  0  0  0  0  0  0  0
   -0.4870   68.9500   66.4650 C   0  0  0  0  0  0  0  0  0  0  0  0
   -1.8280   69.1480   66.1270 C   0  0  0  0  0  0  0  0  0  0  0  0
    3.3360   69.0030   64.1430 C   0  0  0  0  0  0  0  0  0  0  0  0
    2.2230   69.0540   63.2130 N   0  0  0  0  0  0  0  0  0  0  0  0
    2.3170   69.0430   61.8500 C   0  0  0  0  0  0  0  0  0  0  0  0
    1.1300   69.0870   61.2880 N   0  0  0  0  0  0  0  0  0  0  0  0
    0.2380   69.1150   62.3290 C   0  0  0  0  0  0  0  0  0  0  0  0
    0.8960   69.0870   63.5360 C   0  0  0  0  0  0  0  0  0  0  0  0
    2.0173   69.6115   65.7393 H   0  0  0  0  0  0  0  0  0  0  0  0
    5.6004   68.9738   65.1455 H   0  0  0  0  0  0  0  0  0  0  0  0
    7.4309   69.8869   66.5617 H   0  0  0  0  0  0  0  0  0  0  0  0
    4.5320   71.1846   69.4835 H   0  0  0  0  0  0  0  0  0  0  0  0
    1.4299   66.7924   68.2766 H   0  0  0  0  0  0  0  0  0  0  0  0
    1.7172   68.5808   67.9845 H   0  0  0  0  0  0  0  0  0  0  0  0
   -3.1945   66.4205   67.6526 H   0  0  0  0  0  0  0  0  0  0  0  0
   -0.8072   66.0793   68.2860 H   0  0  0  0  0  0  0  0  0  0  0  0
    0.2714   69.6750   66.1347 H   0  0  0  0  0  0  0  0  0  0  0  0
   -2.1215   70.0222   65.5272 H   0  0  0  0  0  0  0  0  0  0  0  0
    3.9635   69.8922   63.9832 H   0  0  0  0  0  0  0  0  0  0  0  0
    3.8784   68.0666   63.9454 H   0  0  0  0  0  0  0  0  0  0  0  0
    3.2653   69.0025   61.2940 H   0  0  0  0  0  0  0  0  0  0  0  0
   -0.8553   69.1545   62.2141 H   0  0  0  0  0  0  0  0  0  0  0  0
    0.4511   69.0904   64.5420 H   0  0  0  0  0  0  0  0  0  0  0  0
  2  1  1  0
  3  2  2  0
  4  3  1  0
  5  4  2  0
  6  5  1  0
  7  6  2  0
  7  2  1  0
  8  7  1  0
  9  5  1  0
 10  1  1  0
 11 10  1  0
 13 12  1  0
 14 13  2  0
 15 14  1  0
 16 11  1  0
 16 15  2  0
 17 16  1  0
 18 17  2  0
 18 13  1  0
 19  1  1  0
 20 19  1  0
 21 20  1  0
 22 21  2  0
 23 22  1  0
 24 23  2  0
 24 20  1  0
  1 25  1  6
  3 26  1  0
  4 27  1  0
  6 28  1  0
 11 29  1  0
 11 30  1  0
 14 31  1  0
 15 32  1  0
 17 33  1  0
 18 34  1  0
 19 35  1  0
 19 36  1  0
 21 37  1  0
 23 38  1  0
 24 39  1  0
M  END
>  <score>  (6) 
-9.11

$$$$
=
     RDKit          3D

 39 41  0  0  0  0  0  0  0  0999 V2000
    2.8430   69.1020   65.5760 C   0  0  2  0  0  0  0  0  0  0  0  0
    3.9690   69.6510   66.4480 C   0  0  0  0  0  0  0  0  0  0  0  0
    3.7540   69.8670   67.8250 C   0  0  0  0  0  0  0  0  0  0  0  0
    4.7710   70.3560   68.6500 C   0  0  0  0  0  0  0  0  0  0  0  0
    6.0240   70.6250   68.1140 C   0  0  0  0  0  0  0  0  0  0  0  0
    6.2720   70.4040   66.7640 C   0  0  0  0  0  0  0  0  0  0  0  0
    5.2550   69.9150   65.9370 C   0  0  0  0  0  0  0  0  0  0  0  0
    5.6680   69.6330   64.2830 Cl  0  0  0  0  0  0  0  0  0  0  0  0
    7.2770   71.2250   69.1280 Cl  0  0  0  0  0  0  0  0  0  0  0  0
    1.1820   69.4590   66.3170 S   0  0  0  0  0  0  0  0  0  0  0  0
    0.4910   67.7730   66.3950 C   0  0  0  0  0  0  0  0  0  0  0  0
    0.0620   65.4280   71.9410 Cl  0  0  0  0  0  0  0  0  0  0  0  0
    0.1890   66.1090   70.3660 C   0  0  0  0  0  0  0  0  0  0  0  0
    1.3860   66.6880   69.9540 C   0  0  0  0  0  0  0  0  0  0  0  0
    1.4860   67.2420   68.6760 C   0  0  0  0  0  0  0  0  0  0  0  0
    0.3980   67.2000   67.7890 C   0  0  0  0  0  0  0  0  0  0  0  0
   -0.8070   66.6280   68.2290 C   0  0  0  0  0  0  0  0  0  0  0  0
   -0.9090   66.0810   69.5100 C   0  0  0  0  0  0  0  0  0  0  0  0
    3.0280   67.5890   65.3410 C   0  0  0  0  0  0  0  0  0  0  0  0
    3.5010   67.2610   64.0090 N   0  0  0  0  0  0  0  0  0  0  0  0
    4.2530   66.1710   63.6710 C   0  0  0  0  0  0  0  0  0  0  0  0
    4.5110   66.1490   62.3830 N   0  0  0  0  0  0  0  0  0  0  0  0
    3.8920   67.2590   61.8710 C   0  0  0  0  0  0  0  0  0  0  0  0
    3.2510   67.9620   62.8630 C   0  0  0  0  0  0  0  0  0  0  0  0
    2.8887   69.6118   64.6024 H   0  0  0  0  0  0  0  0  0  0  0  0
    2.7672   69.6465   68.2581 H   0  0  0  0  0  0  0  0  0  0  0  0
    4.5798   70.5271   69.7196 H   0  0  0  0  0  0  0  0  0  0  0  0
    7.2677   70.6136   66.3461 H   0  0  0  0  0  0  0  0  0  0  0  0
   -0.5209   67.7958   65.9644 H   0  0  0  0  0  0  0  0  0  0  0  0
    1.1813   67.1250   65.8350 H   0  0  0  0  0  0  0  0  0  0  0  0
    2.2509   66.7091   70.6334 H   0  0  0  0  0  0  0  0  0  0  0  0
    2.4271   67.7164   68.3607 H   0  0  0  0  0  0  0  0  0  0  0  0
   -1.6787   66.6107   67.5583 H   0  0  0  0  0  0  0  0  0  0  0  0
   -1.8551   65.6288   69.8422 H   0  0  0  0  0  0  0  0  0  0  0  0
    3.7575   67.2103   66.0720 H   0  0  0  0  0  0  0  0  0  0  0  0
    2.0389   67.1217   65.4560 H   0  0  0  0  0  0  0  0  0  0  0  0
    4.5981   65.4095   64.3859 H   0  0  0  0  0  0  0  0  0  0  0  0
    3.9061   67.5483   60.8098 H   0  0  0  0  0  0  0  0  0  0  0  0
    2.6648   68.8868   62.7574 H   0  0  0  0  0  0  0  0  0  0  0  0
  2  1  1  0
  3  2  2  0
  4  3  1  0
  5  4  2  0
  6  5  1  0
  7  6  2  0
  7  2  1  0
  8  7  1  0
  9  5  1  0
 10  1  1  0
 11 10  1  0
 13 12  1  0
 14 13  2  0
 15 14  1  0
 16 11  1  0
 16 15  2  0
 17 16  1  0
 18 17  2  0
 18 13  1  0
 19  1  1  0
 20 19  1  0
 21 20  1  0
 22 21  2  0
 23 22  1  0
 24 23  2  0
 24 20  1  0
  1 25  1  6
  3 26  1  0
  4 27  1  0
  6 28  1  0
 11 29  1  0
 11 30  1  0
 14 31  1  0
 15 32  1  0
 17 33  1  0
 18 34  1  0
 19 35  1  0
 19 36  1  0
 21 37  1  0
 23 38  1  0
 24 39  1  0
M  END
>  <score>  (7) 
-9.045

$$$$
=
     RDKit          3D

 39 41  0  0  0  0  0  0  0  0999 V2000
    3.1660   69.2810   66.3130 C   0  0  2  0  0  0  0  0  0  0  0  0
    4.3930   69.8650   67.0060 C   0  0  0  0  0  0  0  0  0  0  0  0
    4.3750   70.0970   68.3970 C   0  0  0  0  0  0  0  0  0  0  0  0
    5.4890   70.6180   69.0610 C   0  0  0  0  0  0  0  0  0  0  0  0
    6.6460   70.9040   68.3460 C   0  0  0  0  0  0  0  0  0  0  0  0
    6.7010   70.6670   66.9770 C   0  0  0  0  0  0  0  0  0  0  0  0
    5.5860   70.1470   66.3120 C   0  0  0  0  0  0  0  0  0  0  0  0
    5.7630   69.8480   64.6180 Cl  0  0  0  0  0  0  0  0  0  0  0  0
    8.0180   71.5440   69.1610 Cl  0  0  0  0  0  0  0  0  0  0  0  0
    1.8190   68.9060   67.5300 S   0  0  0  0  0  0  0  0  0  0  0  0
    0.9040   67.6210   66.6160 C   0  0  0  0  0  0  0  0  0  0  0  0
   -5.0150   68.6920   66.1000 Cl  0  0  0  0  0  0  0  0  0  0  0  0
   -3.3270   68.3830   66.2330 C   0  0  0  0  0  0  0  0  0  0  0  0
   -2.4380   68.9910   65.3520 C   0  0  0  0  0  0  0  0  0  0  0  0
   -1.0690   68.7370   65.4610 C   0  0  0  0  0  0  0  0  0  0  0  0
   -0.5750   67.8920   66.4680 C   0  0  0  0  0  0  0  0  0  0  0  0
   -1.4890   67.2730   67.3360 C   0  0  0  0  0  0  0  0  0  0  0  0
   -2.8580   67.5220   67.2210 C   0  0  0  0  0  0  0  0  0  0  0  0
    3.5460   68.0220   65.5060 C   0  0  0  0  0  0  0  0  0  0  0  0
    3.2310   68.1190   64.0930 N   0  0  0  0  0  0  0  0  0  0  0  0
    3.8480   67.4320   63.0860 C   0  0  0  0  0  0  0  0  0  0  0  0
    3.3280   67.7290   61.9160 N   0  0  0  0  0  0  0  0  0  0  0  0
    2.3310   68.6320   62.1820 C   0  0  0  0  0  0  0  0  0  0  0  0
    2.2480   68.8840   63.5310 C   0  0  0  0  0  0  0  0  0  0  0  0
    2.7804   70.0372   65.6134 H   0  0  0  0  0  0  0  0  0  0  0  0
    3.4661   69.8632   68.9708 H   0  0  0  0  0  0  0  0  0  0  0  0
    5.4502   70.8009   70.1450 H   0  0  0  0  0  0  0  0  0  0  0  0
    7.6215   70.8885   66.4170 H   0  0  0  0  0  0  0  0  0  0  0  0
    1.3407   67.5380   65.6098 H   0  0  0  0  0  0  0  0  0  0  0  0
    0.9957   66.6945   67.2018 H   0  0  0  0  0  0  0  0  0  0  0  0
   -2.8125   69.6699   64.5717 H   0  0  0  0  0  0  0  0  0  0  0  0
   -0.3705   69.2036   64.7508 H   0  0  0  0  0  0  0  0  0  0  0  0
   -1.1232   66.5860   68.1133 H   0  0  0  0  0  0  0  0  0  0  0  0
   -3.5653   67.0382   67.9106 H   0  0  0  0  0  0  0  0  0  0  0  0
    4.6284   67.8561   65.6101 H   0  0  0  0  0  0  0  0  0  0  0  0
    2.9533   67.1887   65.9115 H   0  0  0  0  0  0  0  0  0  0  0  0
    4.6742   66.7213   63.2353 H   0  0  0  0  0  0  0  0  0  0  0  0
    1.6853   69.0923   61.4196 H   0  0  0  0  0  0  0  0  0  0  0  0
    1.5442   69.5548   64.0455 H   0  0  0  0  0  0  0  0  0  0  0  0
  2  1  1  0
  3  2  2  0
  4  3  1  0
  5  4  2  0
  6  5  1  0
  7  6  2  0
  7  2  1  0
  8  7  1  0
  9  5  1  0
 10  1  1  0
 11 10  1  0
 13 12  1  0
 14 13  2  0
 15 14  1  0
 16 11  1  0
 16 15  2  0
 17 16  1  0
 18 17  2  0
 18 13  1  0
 19  1  1  0
 20 19  1  0
 21 20  1  0
 22 21  2  0
 23 22  1  0
 24 23  2  0
 24 20  1  0
  1 25  1  6
  3 26  1  0
  4 27  1  0
  6 28  1  0
 11 29  1  0
 11 30  1  0
 14 31  1  0
 15 32  1  0
 17 33  1  0
 18 34  1  0
 19 35  1  0
 19 36  1  0
 21 37  1  0
 23 38  1  0
 24 39  1  0
M  END
>  <score>  (8) 
-8.712

$$$$
=
     RDKit          3D

 39 41  0  0  0  0  0  0  0  0999 V2000
    2.3860   69.4490   66.8790 C   0  0  2  0  0  0  0  0  0  0  0  0
    3.7060   69.8880   67.5070 C   0  0  0  0  0  0  0  0  0  0  0  0
    3.7710   70.1780   68.8860 C   0  0  0  0  0  0  0  0  0  0  0  0
    4.9690   70.5680   69.4900 C   0  0  0  0  0  0  0  0  0  0  0  0
    6.1260   70.6650   68.7280 C   0  0  0  0  0  0  0  0  0  0  0  0
    6.0980   70.3680   67.3690 C   0  0  0  0  0  0  0  0  0  0  0  0
    4.8990   69.9770   66.7630 C   0  0  0  0  0  0  0  0  0  0  0  0
    4.9720   69.5890   65.0810 Cl  0  0  0  0  0  0  0  0  0  0  0  0
    7.6010   71.1450   69.4690 Cl  0  0  0  0  0  0  0  0  0  0  0  0
    1.1640   68.9310   68.1730 S   0  0  0  0  0  0  0  0  0  0  0  0
    1.1900   67.1230   67.9390 C   0  0  0  0  0  0  0  0  0  0  0  0
    0.4200   63.9400   73.0100 Cl  0  0  0  0  0  0  0  0  0  0  0  0
    0.6530   64.8510   71.5690 C   0  0  0  0  0  0  0  0  0  0  0  0
    1.7780   64.6280   70.7800 C   0  0  0  0  0  0  0  0  0  0  0  0
    1.9660   65.3710   69.6120 C   0  0  0  0  0  0  0  0  0  0  0  0
    1.0170   66.3250   69.2090 C   0  0  0  0  0  0  0  0  0  0  0  0
   -0.1020   66.5480   70.0270 C   0  0  0  0  0  0  0  0  0  0  0  0
   -0.2850   65.8110   71.1990 C   0  0  0  0  0  0  0  0  0  0  0  0
    2.6220   68.3170   65.8580 C   0  0  0  0  0  0  0  0  0  0  0  0
    1.8540   68.4660   64.6360 N   0  0  0  0  0  0  0  0  0  0  0  0
    2.3510   68.4080   63.3650 C   0  0  0  0  0  0  0  0  0  0  0  0
    1.4000   68.5690   62.4720 N   0  0  0  0  0  0  0  0  0  0  0  0
    0.2460   68.7240   63.1960 C   0  0  0  0  0  0  0  0  0  0  0  0
    0.5040   68.6550   64.5440 C   0  0  0  0  0  0  0  0  0  0  0  0
    1.9595   70.3120   66.3466 H   0  0  0  0  0  0  0  0  0  0  0  0
    2.8606   70.0955   69.4978 H   0  0  0  0  0  0  0  0  0  0  0  0
    4.9957   70.7974   70.5655 H   0  0  0  0  0  0  0  0  0  0  0  0
    7.0184   70.4406   66.7710 H   0  0  0  0  0  0  0  0  0  0  0  0
    0.3755   66.8539   67.2504 H   0  0  0  0  0  0  0  0  0  0  0  0
    2.1862   66.8727   67.5454 H   0  0  0  0  0  0  0  0  0  0  0  0
    2.5170   63.8687   71.0755 H   0  0  0  0  0  0  0  0  0  0  0  0
    2.8664   65.2073   69.0017 H   0  0  0  0  0  0  0  0  0  0  0  0
   -0.8417   67.3106   69.7420 H   0  0  0  0  0  0  0  0  0  0  0  0
   -1.1691   65.9887   71.8290 H   0  0  0  0  0  0  0  0  0  0  0  0
    3.6905   68.3014   65.5972 H   0  0  0  0  0  0  0  0  0  0  0  0
    2.2930   67.3810   66.3331 H   0  0  0  0  0  0  0  0  0  0  0  0
    3.4113   68.2472   63.1201 H   0  0  0  0  0  0  0  0  0  0  0  0
   -0.7504   68.8820   62.7576 H   0  0  0  0  0  0  0  0  0  0  0  0
   -0.2189   68.7346   65.3692 H   0  0  0  0  0  0  0  0  0  0  0  0
  2  1  1  0
  3  2  2  0
  4  3  1  0
  5  4  2  0
  6  5  1  0
  7  6  2  0
  7  2  1  0
  8  7  1  0
  9  5  1  0
 10  1  1  0
 11 10  1  0
 13 12  1  0
 14 13  2  0
 15 14  1  0
 16 11  1  0
 16 15  2  0
 17 16  1  0
 18 17  2  0
 18 13  1  0
 19  1  1  0
 20 19  1  0
 21 20  1  0
 22 21  2  0
 23 22  1  0
 24 23  2  0
 24 20  1  0
  1 25  1  6
  3 26  1  0
  4 27  1  0
  6 28  1  0
 11 29  1  0
 11 30  1  0
 14 31  1  0
 15 32  1  0
 17 33  1  0
 18 34  1  0
 19 35  1  0
 19 36  1  0
 21 37  1  0
 23 38  1  0
 24 39  1  0
M  END
>  <score>  (9) 
-8.129

$$$$
