=
     RDKit          3D

 82 86  0  0  0  0  0  0  0  0999 V2000
    1.1680   63.7420   72.1940 N   0  0  0  0  0  4  0  0  0  0  0  0
    1.9930   63.5730   70.9170 C   0  0  0  0  0  0  0  0  0  0  0  0
    2.2610   64.9460   70.2370 C   0  0  0  0  0  0  0  0  0  0  0  0
    0.9710   65.7380   69.9900 N   0  0  0  0  0  4  0  0  0  0  0  0
    0.0980   65.8330   71.2390 C   0  0  0  0  0  0  0  0  0  0  0  0
   -0.1530   64.4580   71.9110 C   0  0  0  0  0  0  0  0  0  0  0  0
    1.0610   62.5030   73.0820 C   0  0  0  0  0  0  0  0  0  0  0  0
    0.3910   61.2860   72.4220 C   0  0  0  0  0  0  0  0  0  0  0  0
    0.7960   59.9920   73.1670 C   0  0  0  0  0  0  0  0  0  0  0  0
    2.8190   58.5240   73.5910 C   0  0  0  0  0  0  0  0  0  0  0  0
    1.9910   59.2720   72.5550 N   0  0  2  0  0  4  0  0  0  0  0  0
    2.9300   60.2160   71.7200 C   0  0  0  0  0  0  0  0  0  0  0  0
    3.3190   59.5850   70.3770 C   0  0  0  0  0  0  0  0  0  0  0  0
    4.2240   60.5020   69.5460 C   0  0  0  0  0  0  0  0  0  0  0  0
    5.0860   61.4460   70.3810 C   0  0  0  0  0  0  0  0  0  0  0  0
    5.4400   60.8260   71.7200 C   0  0  0  0  0  0  0  0  0  0  0  0
    4.1890   60.5360   72.5540 C   0  0  0  0  0  0  0  0  0  0  0  0
    1.3350   67.1430   69.4100 C   0  0  0  0  0  0  0  0  0  0  0  0
    1.1340   67.2720   67.8770 C   0  0  0  0  0  0  0  0  0  0  0  0
    1.1470   68.6720   67.4230 N   0  0  0  0  0  0  0  0  0  0  0  0
    2.3130   69.1160   66.7510 C   0  0  0  0  0  0  0  0  0  0  0  0
    3.3970   69.6970   67.4360 C   0  0  0  0  0  0  0  0  0  0  0  0
    3.3060   70.1180   68.8860 C   0  0  0  0  0  0  0  0  0  0  0  0
    4.3970   71.1000   69.3120 C   0  0  0  0  0  0  0  0  0  0  0  0
    5.7590   70.5980   68.8560 C   0  0  0  0  0  0  0  0  0  0  0  0
    5.8000   70.5240   67.3340 C   0  0  0  0  0  0  0  0  0  0  0  0
    4.5890   69.8590   66.7260 C   0  0  0  0  0  0  0  0  0  0  0  0
    4.7280   69.4870   65.4310 N   0  0  0  0  0  0  0  0  0  0  0  0
    3.6450   69.1260   64.7330 C   0  0  0  0  0  0  0  0  0  0  0  0
    2.3970   68.9210   65.3460 C   0  0  0  0  0  0  0  0  0  0  0  0
    1.3020   68.5170   64.5440 C   0  0  0  0  0  0  0  0  0  0  0  0
    1.4470   68.3110   63.1730 C   0  0  0  0  0  0  0  0  0  0  0  0
    2.6880   68.5030   62.5840 C   0  0  0  0  0  0  0  0  0  0  0  0
    3.7720   68.9060   63.3670 C   0  0  0  0  0  0  0  0  0  0  0  0
    1.7144   64.3692   72.8015 H   0  0  0  0  0  0  0  0  0  0  0  0
    2.9551   63.1038   71.1704 H   0  0  0  0  0  0  0  0  0  0  0  0
    1.4270   62.9411   70.2167 H   0  0  0  0  0  0  0  0  0  0  0  0
    2.9208   65.5393   70.8871 H   0  0  0  0  0  0  0  0  0  0  0  0
    2.7270   64.7510   69.2599 H   0  0  0  0  0  0  0  0  0  0  0  0
    0.3997   65.2320   69.2983 H   0  0  0  0  0  0  0  0  0  0  0  0
    0.5963   66.4920   71.9653 H   0  0  0  0  0  0  0  0  0  0  0  0
   -0.8796   66.2292   70.9269 H   0  0  0  0  0  0  0  0  0  0  0  0
   -0.7641   63.8355   71.2409 H   0  0  0  0  0  0  0  0  0  0  0  0
   -0.6761   64.6222   72.8647 H   0  0  0  0  0  0  0  0  0  0  0  0
    2.0776   62.2108   73.3840 H   0  0  0  0  0  0  0  0  0  0  0  0
    0.4183   62.7862   73.9286 H   0  0  0  0  0  0  0  0  0  0  0  0
   -0.7018   61.4041   72.4642 H   0  0  0  0  0  0  0  0  0  0  0  0
    0.7180   61.2173   71.3740 H   0  0  0  0  0  0  0  0  0  0  0  0
    1.0454   60.2547   74.2057 H   0  0  0  0  0  0  0  0  0  0  0  0
   -0.0595   59.3040   73.0974 H   0  0  0  0  0  0  0  0  0  0  0  0
    2.4948   58.8169   74.6005 H   0  0  0  0  0  0  0  0  0  0  0  0
    2.6781   57.4409   73.4605 H   0  0  0  0  0  0  0  0  0  0  0  0
    3.8823   58.7738   73.4605 H   0  0  0  0  0  0  0  0  0  0  0  0
    1.5720   58.5886   71.9082 H   0  0  0  0  0  0  0  0  0  0  0  0
    2.3856   61.1447   71.4937 H   0  0  0  0  0  0  0  0  0  0  0  0
    3.8516   58.6421   70.5698 H   0  0  0  0  0  0  0  0  0  0  0  0
    2.3954   59.4137   69.8046 H   0  0  0  0  0  0  0  0  0  0  0  0
    4.8900   59.8721   68.9380 H   0  0  0  0  0  0  0  0  0  0  0  0
    3.5623   61.1326   68.9340 H   0  0  0  0  0  0  0  0  0  0  0  0
    6.0130   61.6661   69.8312 H   0  0  0  0  0  0  0  0  0  0  0  0
    4.5153   62.3684   70.5642 H   0  0  0  0  0  0  0  0  0  0  0  0
    5.9795   59.8834   71.5457 H   0  0  0  0  0  0  0  0  0  0  0  0
    6.0664   61.5396   72.2753 H   0  0  0  0  0  0  0  0  0  0  0  0
    4.4002   59.6739   73.2037 H   0  0  0  0  0  0  0  0  0  0  0  0
    3.9677   61.4532   73.1195 H   0  0  0  0  0  0  0  0  0  0  0  0
    0.7024   67.8945   69.9049 H   0  0  0  0  0  0  0  0  0  0  0  0
    2.4076   67.2946   69.6011 H   0  0  0  0  0  0  0  0  0  0  0  0
    1.9437   66.7285   67.3680 H   0  0  0  0  0  0  0  0  0  0  0  0
    0.1479   66.8503   67.6324 H   0  0  0  0  0  0  0  0  0  0  0  0
    0.3465   69.2993   67.5860 H   0  0  0  0  0  0  0  0  0  0  0  0
    2.3278   70.5943   69.0483 H   0  0  0  0  0  0  0  0  0  0  0  0
    3.4373   69.2098   69.4925 H   0  0  0  0  0  0  0  0  0  0  0  0
    4.2003   72.0821   68.8573 H   0  0  0  0  0  0  0  0  0  0  0  0
    4.3942   71.1880   70.4085 H   0  0  0  0  0  0  0  0  0  0  0  0
    6.5394   71.2882   69.2090 H   0  0  0  0  0  0  0  0  0  0  0  0
    5.9343   69.5952   69.2728 H   0  0  0  0  0  0  0  0  0  0  0  0
    5.8692   71.5480   66.9383 H   0  0  0  0  0  0  0  0  0  0  0  0
    6.6725   69.9104   67.0654 H   0  0  0  0  0  0  0  0  0  0  0  0
    0.3184   68.3628   65.0118 H   0  0  0  0  0  0  0  0  0  0  0  0
    0.5856   67.9992   62.5641 H   0  0  0  0  0  0  0  0  0  0  0  0
    2.8179   68.3385   61.5042 H   0  0  0  0  0  0  0  0  0  0  0  0
    4.7521   69.0531   62.8897 H   0  0  0  0  0  0  0  0  0  0  0  0
  2  1  1  0
  3  2  1  0
  4  3  1  0
  5  4  1  0
  6  1  1  0
  6  5  1  0
  7  1  1  0
  8  7  1  0
  9  8  1  0
 11 10  1  0
 11  9  1  0
 12 11  1  0
 13 12  1  0
 14 13  1  0
 15 14  1  0
 16 15  1  0
 17 16  1  0
 17 12  1  0
 18  4  1  0
 19 18  1  0
 20 19  1  0
 21 20  1  0
 22 21  1  0
 23 22  1  0
 24 23  1  0
 25 24  1  0
 26 25  1  0
 27 22  2  0
 27 26  1  0
 28 27  1  0
 29 28  2  0
 30 29  1  0
 30 21  2  0
 31 30  1  0
 32 31  2  0
 33 32  1  0
 34 33  2  0
 34 29  1  0
  1 35  1  0
  2 36  1  0
  2 37  1  0
  3 38  1  0
  3 39  1  0
  4 40  1  0
  5 41  1  0
  5 42  1  0
  6 43  1  0
  6 44  1  0
  7 45  1  0
  7 46  1  0
  8 47  1  0
  8 48  1  0
  9 49  1  0
  9 50  1  0
 10 51  1  0
 10 52  1  0
 10 53  1  0
 11 54  1  6
 12 55  1  0
 13 56  1  0
 13 57  1  0
 14 58  1  0
 14 59  1  0
 15 60  1  0
 15 61  1  0
 16 62  1  0
 16 63  1  0
 17 64  1  0
 17 65  1  0
 18 66  1  0
 18 67  1  0
 19 68  1  0
 19 69  1  0
 20 70  1  0
 23 71  1  0
 23 72  1  0
 24 73  1  0
 24 74  1  0
 25 75  1  0
 25 76  1  0
 26 77  1  0
 26 78  1  0
 31 79  1  0
 32 80  1  0
 33 81  1  0
 34 82  1  0
M  CHG  3   1   1   4   1  11   1
M  END
>  <score>  (1) 
-11.043

$$$$
=
     RDKit          3D

 82 86  0  0  0  0  0  0  0  0999 V2000
    1.0180   64.1770   71.3370 N   0  0  0  0  0  4  0  0  0  0  0  0
    0.0660   65.3110   71.7230 C   0  0  0  0  0  0  0  0  0  0  0  0
   -0.3330   66.1550   70.4780 C   0  0  0  0  0  0  0  0  0  0  0  0
    0.8870   66.6640   69.7020 N   0  0  0  0  0  4  0  0  0  0  0  0
    1.8860   65.5520   69.3920 C   0  0  0  0  0  0  0  0  0  0  0  0
    2.2680   64.7140   70.6400 C   0  0  0  0  0  0  0  0  0  0  0  0
    1.2750   63.1310   72.4220 C   0  0  0  0  0  0  0  0  0  0  0  0
    2.3650   62.1000   72.0840 C   0  0  0  0  0  0  0  0  0  0  0  0
    3.0440   61.6060   73.3840 C   0  0  0  0  0  0  0  0  0  0  0  0
    4.9950   60.8250   71.9650 C   0  0  0  0  0  0  0  0  0  0  0  0
    4.1010   60.5310   73.1620 N   0  0  2  0  0  4  0  0  0  0  0  0
    3.5020   59.0840   73.0230 C   0  0  0  0  0  0  0  0  0  0  0  0
    3.2670   58.7060   71.5550 C   0  0  0  0  0  0  0  0  0  0  0  0
    2.6960   57.2910   71.4050 C   0  0  0  0  0  0  0  0  0  0  0  0
    1.8640   56.8280   72.5980 C   0  0  0  0  0  0  0  0  0  0  0  0
    1.1720   57.9970   73.2730 C   0  0  0  0  0  0  0  0  0  0  0  0
    2.1810   59.0090   73.8200 C   0  0  0  0  0  0  0  0  0  0  0  0
    0.4010   67.4040   68.4120 C   0  0  0  0  0  0  0  0  0  0  0  0
    1.4680   67.4960   67.2900 C   0  0  0  0  0  0  0  0  0  0  0  0
    1.5830   68.8540   66.7330 N   0  0  0  0  0  0  0  0  0  0  0  0
    2.8790   69.2830   66.3540 C   0  0  0  0  0  0  0  0  0  0  0  0
    3.7920   69.8160   67.2840 C   0  0  0  0  0  0  0  0  0  0  0  0
    3.3860   70.2010   68.6890 C   0  0  0  0  0  0  0  0  0  0  0  0
    4.3730   71.1410   69.3800 C   0  0  0  0  0  0  0  0  0  0  0  0
    5.7920   70.6130   69.2270 C   0  0  0  0  0  0  0  0  0  0  0  0
    6.1740   70.5780   67.7510 C   0  0  0  0  0  0  0  0  0  0  0  0
    5.1170   69.9630   66.8660 C   0  0  0  0  0  0  0  0  0  0  0  0
    5.5380   69.6210   65.6240 N   0  0  0  0  0  0  0  0  0  0  0  0
    4.6320   69.3080   64.6900 C   0  0  0  0  0  0  0  0  0  0  0  0
    3.2750   69.1230   64.9990 C   0  0  0  0  0  0  0  0  0  0  0  0
    2.3800   68.7700   63.9590 C   0  0  0  0  0  0  0  0  0  0  0  0
    2.8270   68.5960   62.6500 C   0  0  0  0  0  0  0  0  0  0  0  0
    4.1730   68.7680   62.3620 C   0  0  0  0  0  0  0  0  0  0  0  0
    5.0600   69.1210   63.3810 C   0  0  0  0  0  0  0  0  0  0  0  0
    0.5152   63.6125   70.6374 H   0  0  0  0  0  0  0  0  0  0  0  0
   -0.8417   64.8811   72.1717 H   0  0  0  0  0  0  0  0  0  0  0  0
    0.5781   65.9681   72.4413 H   0  0  0  0  0  0  0  0  0  0  0  0
   -0.9423   65.5304   69.8082 H   0  0  0  0  0  0  0  0  0  0  0  0
   -0.8945   67.0317   70.8330 H   0  0  0  0  0  0  0  0  0  0  0  0
    1.4009   67.3317   70.2945 H   0  0  0  0  0  0  0  0  0  0  0  0
    1.4418   64.8810   68.6420 H   0  0  0  0  0  0  0  0  0  0  0  0
    2.8055   66.0298   69.0229 H   0  0  0  0  0  0  0  0  0  0  0  0
    2.8282   65.3484   71.3426 H   0  0  0  0  0  0  0  0  0  0  0  0
    2.8850   63.8624   70.3174 H   0  0  0  0  0  0  0  0  0  0  0  0
    1.5759   63.6577   73.3396 H   0  0  0  0  0  0  0  0  0  0  0  0
    0.3385   62.5644   72.5315 H   0  0  0  0  0  0  0  0  0  0  0  0
    1.9094   61.2451   71.5629 H   0  0  0  0  0  0  0  0  0  0  0  0
    3.1202   62.5703   71.4371 H   0  0  0  0  0  0  0  0  0  0  0  0
    3.5238   62.4671   73.8723 H   0  0  0  0  0  0  0  0  0  0  0  0
    2.2551   61.1533   74.0026 H   0  0  0  0  0  0  0  0  0  0  0  0
    5.9848   61.1505   72.3177 H   0  0  0  0  0  0  0  0  0  0  0  0
    5.1036   59.9153   71.3563 H   0  0  0  0  0  0  0  0  0  0  0  0
    4.5425   61.6216   71.3563 H   0  0  0  0  0  0  0  0  0  0  0  0
    4.6735   60.5566   74.0179 H   0  0  0  0  0  0  0  0  0  0  0  0
    4.2259   58.3625   73.4298 H   0  0  0  0  0  0  0  0  0  0  0  0
    2.5584   59.4224   71.1139 H   0  0  0  0  0  0  0  0  0  0  0  0
    4.2384   58.7343   71.0396 H   0  0  0  0  0  0  0  0  0  0  0  0
    2.0584   57.2684   70.5089 H   0  0  0  0  0  0  0  0  0  0  0  0
    3.5546   56.6073   71.3310 H   0  0  0  0  0  0  0  0  0  0  0  0
    1.1034   56.1140   72.2491 H   0  0  0  0  0  0  0  0  0  0  0  0
    2.5366   56.3537   73.3278 H   0  0  0  0  0  0  0  0  0  0  0  0
    0.5237   58.4997   72.5402 H   0  0  0  0  0  0  0  0  0  0  0  0
    0.5830   57.6078   74.1166 H   0  0  0  0  0  0  0  0  0  0  0  0
    1.7130   60.0044   73.8055 H   0  0  0  0  0  0  0  0  0  0  0  0
    2.4438   58.6748   74.8345 H   0  0  0  0  0  0  0  0  0  0  0  0
   -0.4720   66.8659   68.0142 H   0  0  0  0  0  0  0  0  0  0  0  0
    0.1667   68.4366   68.7100 H   0  0  0  0  0  0  0  0  0  0  0  0
    2.4430   67.2010   67.7050 H   0  0  0  0  0  0  0  0  0  0  0  0
    1.1562   66.8254   66.4757 H   0  0  0  0  0  0  0  0  0  0  0  0
    0.7599   69.4635   66.6240 H   0  0  0  0  0  0  0  0  0  0  0  0
    2.4065   70.6995   68.6428 H   0  0  0  0  0  0  0  0  0  0  0  0
    3.3588   69.2738   69.2803 H   0  0  0  0  0  0  0  0  0  0  0  0
    4.3051   72.1395   68.9235 H   0  0  0  0  0  0  0  0  0  0  0  0
    4.1244   71.2011   70.4499 H   0  0  0  0  0  0  0  0  0  0  0  0
    6.4870   71.2715   69.7685 H   0  0  0  0  0  0  0  0  0  0  0  0
    5.8473   69.5952   69.6406 H   0  0  0  0  0  0  0  0  0  0  0  0
    6.3523   71.6097   67.4137 H   0  0  0  0  0  0  0  0  0  0  0  0
    7.0717   69.9480   67.6657 H   0  0  0  0  0  0  0  0  0  0  0  0
    1.3133   68.6307   64.1885 H   0  0  0  0  0  0  0  0  0  0  0  0
    2.1190   68.3249   61.8530 H   0  0  0  0  0  0  0  0  0  0  0  0
    4.5402   68.6268   61.3348 H   0  0  0  0  0  0  0  0  0  0  0  0
    6.1253   69.2546   63.1415 H   0  0  0  0  0  0  0  0  0  0  0  0
  2  1  1  0
  3  2  1  0
  4  3  1  0
  5  4  1  0
  6  1  1  0
  6  5  1  0
  7  1  1  0
  8  7  1  0
  9  8  1  0
 11 10  1  0
 11  9  1  0
 12 11  1  0
 13 12  1  0
 14 13  1  0
 15 14  1  0
 16 15  1  0
 17 16  1  0
 17 12  1  0
 18  4  1  0
 19 18  1  0
 20 19  1  0
 21 20  1  0
 22 21  1  0
 23 22  1  0
 24 23  1  0
 25 24  1  0
 26 25  1  0
 27 22  2  0
 27 26  1  0
 28 27  1  0
 29 28  2  0
 30 29  1  0
 30 21  2  0
 31 30  1  0
 32 31  2  0
 33 32  1  0
 34 33  2  0
 34 29  1  0
  1 35  1  0
  2 36  1  0
  2 37  1  0
  3 38  1  0
  3 39  1  0
  4 40  1  0
  5 41  1  0
  5 42  1  0
  6 43  1  0
  6 44  1  0
  7 45  1  0
  7 46  1  0
  8 47  1  0
  8 48  1  0
  9 49  1  0
  9 50  1  0
 10 51  1  0
 10 52  1  0
 10 53  1  0
 11 54  1  1
 12 55  1  0
 13 56  1  0
 13 57  1  0
 14 58  1  0
 14 59  1  0
 15 60  1  0
 15 61  1  0
 16 62  1  0
 16 63  1  0
 17 64  1  0
 17 65  1  0
 18 66  1  0
 18 67  1  0
 19 68  1  0
 19 69  1  0
 20 70  1  0
 23 71  1  0
 23 72  1  0
 24 73  1  0
 24 74  1  0
 25 75  1  0
 25 76  1  0
 26 77  1  0
 26 78  1  0
 31 79  1  0
 32 80  1  0
 33 81  1  0
 34 82  1  0
M  CHG  3   1   1   4   1  11   1
M  END
>  <score>  (2) 
-10.513

$$$$
=
     RDKit          3D

 82 86  0  0  0  0  0  0  0  0999 V2000
    1.2210   63.0110   71.3440 N   0  0  0  0  0  4  0  0  0  0  0  0
    2.4770   63.3740   70.5500 C   0  0  0  0  0  0  0  0  0  0  0  0
    2.5530   64.9070   70.2930 C   0  0  0  0  0  0  0  0  0  0  0  0
    1.2780   65.4540   69.6390 N   0  0  0  0  0  4  0  0  0  0  0  0
    0.0130   65.0190   70.3760 C   0  0  0  0  0  0  0  0  0  0  0  0
   -0.0440   63.4910   70.6330 C   0  0  0  0  0  0  0  0  0  0  0  0
    1.1660   61.5800   71.8780 C   0  0  0  0  0  0  0  0  0  0  0  0
    1.0480   61.4600   73.4070 C   0  0  0  0  0  0  0  0  0  0  0  0
    2.4520   61.2760   74.0310 C   0  0  0  0  0  0  0  0  0  0  0  0
    4.0360   59.3140   73.7710 C   0  0  0  0  0  0  0  0  0  0  0  0
    2.7700   59.8410   74.4310 N   0  0  2  0  0  4  0  0  0  0  0  0
    1.5870   58.8410   74.1640 C   0  0  0  0  0  0  0  0  0  0  0  0
    1.2640   57.9990   75.4050 C   0  0  0  0  0  0  0  0  0  0  0  0
    0.1020   57.0290   75.1620 C   0  0  0  0  0  0  0  0  0  0  0  0
   -0.0390   56.5810   73.7100 C   0  0  0  0  0  0  0  0  0  0  0  0
    1.3090   56.5450   73.0130 C   0  0  0  0  0  0  0  0  0  0  0  0
    1.9590   57.9300   72.9730 C   0  0  0  0  0  0  0  0  0  0  0  0
    1.3910   67.0090   69.5180 C   0  0  0  0  0  0  0  0  0  0  0  0
    0.9120   67.5780   68.1570 C   0  0  0  0  0  0  0  0  0  0  0  0
    1.2700   68.9950   67.9820 N   0  0  0  0  0  0  0  0  0  0  0  0
    2.3690   69.2770   67.1320 C   0  0  0  0  0  0  0  0  0  0  0  0
    3.5820   69.7940   67.6250 C   0  0  0  0  0  0  0  0  0  0  0  0
    3.7260   70.3180   69.0360 C   0  0  0  0  0  0  0  0  0  0  0  0
    4.9470   71.2150   69.2390 C   0  0  0  0  0  0  0  0  0  0  0  0
    6.1850   70.5530   68.6530 C   0  0  0  0  0  0  0  0  0  0  0  0
    6.0130   70.3730   67.1490 C   0  0  0  0  0  0  0  0  0  0  0  0
    4.6770   69.7910   66.7570 C   0  0  0  0  0  0  0  0  0  0  0  0
    4.6060   69.3210   65.4880 N   0  0  0  0  0  0  0  0  0  0  0  0
    3.4110   69.0220   64.9660 C   0  0  0  0  0  0  0  0  0  0  0  0
    2.2450   68.9810   65.7480 C   0  0  0  0  0  0  0  0  0  0  0  0
    1.0200   68.6330   65.1280 C   0  0  0  0  0  0  0  0  0  0  0  0
    0.9600   68.3230   63.7710 C   0  0  0  0  0  0  0  0  0  0  0  0
    2.1220   68.3530   63.0140 C   0  0  0  0  0  0  0  0  0  0  0  0
    3.3330   68.7000   63.6170 C   0  0  0  0  0  0  0  0  0  0  0  0
    1.2799   63.5441   72.2233 H   0  0  0  0  0  0  0  0  0  0  0  0
    3.3648   63.0605   71.1188 H   0  0  0  0  0  0  0  0  0  0  0  0
    2.4382   62.8582   69.5792 H   0  0  0  0  0  0  0  0  0  0  0  0
    2.7046   65.4193   71.2545 H   0  0  0  0  0  0  0  0  0  0  0  0
    3.3894   65.0903   69.6025 H   0  0  0  0  0  0  0  0  0  0  0  0
    1.1925   65.0530   68.6941 H   0  0  0  0  0  0  0  0  0  0  0  0
   -0.0245   65.5389   71.3447 H   0  0  0  0  0  0  0  0  0  0  0  0
   -0.8447   65.2772   69.7375 H   0  0  0  0  0  0  0  0  0  0  0  0
   -0.1372   62.9669   69.6704 H   0  0  0  0  0  0  0  0  0  0  0  0
   -0.9115   63.2740   71.2736 H   0  0  0  0  0  0  0  0  0  0  0  0
    0.2946   61.0814   71.4285 H   0  0  0  0  0  0  0  0  0  0  0  0
    2.1246   61.1138   71.6064 H   0  0  0  0  0  0  0  0  0  0  0  0
    0.5867   62.3737   73.8100 H   0  0  0  0  0  0  0  0  0  0  0  0
    0.4246   60.5882   73.6547 H   0  0  0  0  0  0  0  0  0  0  0  0
    3.2024   61.6046   73.2969 H   0  0  0  0  0  0  0  0  0  0  0  0
    2.4707   61.8747   74.9536 H   0  0  0  0  0  0  0  0  0  0  0  0
    4.7562   59.0142   74.5465 H   0  0  0  0  0  0  0  0  0  0  0  0
    3.7882   58.4443   73.1447 H   0  0  0  0  0  0  0  0  0  0  0  0
    4.4786   60.1026   73.1447 H   0  0  0  0  0  0  0  0  0  0  0  0
    2.9221   59.8885   75.4486 H   0  0  0  0  0  0  0  0  0  0  0  0
    0.6835   59.4208   73.9241 H   0  0  0  0  0  0  0  0  0  0  0  0
    2.1570   57.4194   75.6817 H   0  0  0  0  0  0  0  0  0  0  0  0
    0.9665   58.6864   76.2106 H   0  0  0  0  0  0  0  0  0  0  0  0
    0.2601   56.1367   75.7855 H   0  0  0  0  0  0  0  0  0  0  0  0
   -0.8217   57.5677   75.4201 H   0  0  0  0  0  0  0  0  0  0  0  0
   -0.4820   55.5744   73.6865 H   0  0  0  0  0  0  0  0  0  0  0  0
   -0.6836   57.3010   73.1845 H   0  0  0  0  0  0  0  0  0  0  0  0
    1.9726   55.8546   73.5543 H   0  0  0  0  0  0  0  0  0  0  0  0
    1.1524   56.2081   71.9776 H   0  0  0  0  0  0  0  0  0  0  0  0
    3.0511   57.7981   72.9680 H   0  0  0  0  0  0  0  0  0  0  0  0
    1.5846   58.4278   72.0664 H   0  0  0  0  0  0  0  0  0  0  0  0
    0.7824   67.4620   70.3145 H   0  0  0  0  0  0  0  0  0  0  0  0
    2.4595   67.2557   69.6049 H   0  0  0  0  0  0  0  0  0  0  0  0
    1.3753   66.9944   67.3478 H   0  0  0  0  0  0  0  0  0  0  0  0
   -0.1852   67.5044   68.1311 H   0  0  0  0  0  0  0  0  0  0  0  0
    0.7469   69.7459   68.4546 H   0  0  0  0  0  0  0  0  0  0  0  0
    2.8247   70.8975   69.2845 H   0  0  0  0  0  0  0  0  0  0  0  0
    3.8580   69.4439   69.6906 H   0  0  0  0  0  0  0  0  0  0  0  0
    4.7778   72.1790   68.7370 H   0  0  0  0  0  0  0  0  0  0  0  0
    5.1005   71.3760   70.3163 H   0  0  0  0  0  0  0  0  0  0  0  0
    7.0636   71.1859   68.8467 H   0  0  0  0  0  0  0  0  0  0  0  0
    6.3261   69.5682   69.1223 H   0  0  0  0  0  0  0  0  0  0  0  0
    6.1184   71.3562   66.6672 H   0  0  0  0  0  0  0  0  0  0  0  0
    6.7834   69.6600   66.8202 H   0  0  0  0  0  0  0  0  0  0  0  0
    0.0990   68.6070   65.7289 H   0  0  0  0  0  0  0  0  0  0  0  0
    0.0001   68.0569   63.3043 H   0  0  0  0  0  0  0  0  0  0  0  0
    2.0898   68.1045   61.9429 H   0  0  0  0  0  0  0  0  0  0  0  0
    4.2488   68.7188   63.0079 H   0  0  0  0  0  0  0  0  0  0  0  0
  2  1  1  0
  3  2  1  0
  4  3  1  0
  5  4  1  0
  6  1  1  0
  6  5  1  0
  7  1  1  0
  8  7  1  0
  9  8  1  0
 11 10  1  0
 11  9  1  0
 12 11  1  0
 13 12  1  0
 14 13  1  0
 15 14  1  0
 16 15  1  0
 17 16  1  0
 17 12  1  0
 18  4  1  0
 19 18  1  0
 20 19  1  0
 21 20  1  0
 22 21  1  0
 23 22  1  0
 24 23  1  0
 25 24  1  0
 26 25  1  0
 27 22  2  0
 27 26  1  0
 28 27  1  0
 29 28  2  0
 30 29  1  0
 30 21  2  0
 31 30  1  0
 32 31  2  0
 33 32  1  0
 34 33  2  0
 34 29  1  0
  1 35  1  0
  2 36  1  0
  2 37  1  0
  3 38  1  0
  3 39  1  0
  4 40  1  0
  5 41  1  0
  5 42  1  0
  6 43  1  0
  6 44  1  0
  7 45  1  0
  7 46  1  0
  8 47  1  0
  8 48  1  0
  9 49  1  0
  9 50  1  0
 10 51  1  0
 10 52  1  0
 10 53  1  0
 11 54  1  1
 12 55  1  0
 13 56  1  0
 13 57  1  0
 14 58  1  0
 14 59  1  0
 15 60  1  0
 15 61  1  0
 16 62  1  0
 16 63  1  0
 17 64  1  0
 17 65  1  0
 18 66  1  0
 18 67  1  0
 19 68  1  0
 19 69  1  0
 20 70  1  0
 23 71  1  0
 23 72  1  0
 24 73  1  0
 24 74  1  0
 25 75  1  0
 25 76  1  0
 26 77  1  0
 26 78  1  0
 31 79  1  0
 32 80  1  0
 33 81  1  0
 34 82  1  0
M  CHG  3   1   1   4   1  11   1
M  END
>  <score>  (3) 
-9.899

$$$$
=
     RDKit          3D

 82 86  0  0  0  0  0  0  0  0999 V2000
    1.4340   62.9850   71.3640 N   0  0  0  0  0  4  0  0  0  0  0  0
    2.6210   63.4130   70.4990 C   0  0  0  0  0  0  0  0  0  0  0  0
    2.6050   64.9480   70.2460 C   0  0  0  0  0  0  0  0  0  0  0  0
    1.2690   65.4300   69.6700 N   0  0  0  0  0  4  0  0  0  0  0  0
    0.0720   64.9310   70.4760 C   0  0  0  0  0  0  0  0  0  0  0  0
    0.1070   63.4010   70.7290 C   0  0  0  0  0  0  0  0  0  0  0  0
    1.4820   61.5520   71.8930 C   0  0  0  0  0  0  0  0  0  0  0  0
    0.1760   61.0500   72.5320 C   0  0  0  0  0  0  0  0  0  0  0  0
    0.1280   61.4590   74.0230 C   0  0  0  0  0  0  0  0  0  0  0  0
    1.3720   60.4280   75.9760 C   0  0  0  0  0  0  0  0  0  0  0  0
    0.2200   60.2860   74.9910 N   0  0  2  0  0  4  0  0  0  0  0  0
    0.3150   58.8900   74.2750 C   0  0  0  0  0  0  0  0  0  0  0  0
   -0.7640   57.9210   74.7760 C   0  0  0  0  0  0  0  0  0  0  0  0
   -0.6910   56.5600   74.0750 C   0  0  0  0  0  0  0  0  0  0  0  0
    0.7080   56.1800   73.5990 C   0  0  0  0  0  0  0  0  0  0  0  0
    1.7750   56.7710   74.5030 C   0  0  0  0  0  0  0  0  0  0  0  0
    1.7230   58.3010   74.5090 C   0  0  0  0  0  0  0  0  0  0  0  0
    1.2960   66.9890   69.5490 C   0  0  0  0  0  0  0  0  0  0  0  0
    0.8280   67.5310   68.1730 C   0  0  0  0  0  0  0  0  0  0  0  0
    1.1430   68.9570   67.9930 N   0  0  0  0  0  0  0  0  0  0  0  0
    2.2810   69.2670   67.2050 C   0  0  0  0  0  0  0  0  0  0  0  0
    3.4530   69.8100   67.7650 C   0  0  0  0  0  0  0  0  0  0  0  0
    3.5060   70.3330   69.1830 C   0  0  0  0  0  0  0  0  0  0  0  0
    4.6920   71.2580   69.4550 C   0  0  0  0  0  0  0  0  0  0  0  0
    5.9760   70.6260   68.9380 C   0  0  0  0  0  0  0  0  0  0  0  0
    5.8920   70.4460   67.4260 C   0  0  0  0  0  0  0  0  0  0  0  0
    4.5930   69.8340   66.9600 C   0  0  0  0  0  0  0  0  0  0  0  0
    4.6040   69.3660   65.6880 N   0  0  0  0  0  0  0  0  0  0  0  0
    3.4480   69.0410   65.1000 C   0  0  0  0  0  0  0  0  0  0  0  0
    2.2410   68.9720   65.8160 C   0  0  0  0  0  0  0  0  0  0  0  0
    1.0600   68.5970   65.1290 C   0  0  0  0  0  0  0  0  0  0  0  0
    1.0830   68.2890   63.7700 C   0  0  0  0  0  0  0  0  0  0  0  0
    2.2840   68.3470   63.0780 C   0  0  0  0  0  0  0  0  0  0  0  0
    3.4510   68.7210   63.7480 C   0  0  0  0  0  0  0  0  0  0  0  0
    1.5179   63.5182   72.2412 H   0  0  0  0  0  0  0  0  0  0  0  0
    3.5556   63.1433   71.0126 H   0  0  0  0  0  0  0  0  0  0  0  0
    2.5503   62.8983   69.5294 H   0  0  0  0  0  0  0  0  0  0  0  0
    2.7860   65.4654   71.1997 H   0  0  0  0  0  0  0  0  0  0  0  0
    3.3899   65.1753   69.5096 H   0  0  0  0  0  0  0  0  0  0  0  0
    1.1496   65.0256   68.7303 H   0  0  0  0  0  0  0  0  0  0  0  0
    0.0640   65.4468   71.4475 H   0  0  0  0  0  0  0  0  0  0  0  0
   -0.8329   65.1468   69.8890 H   0  0  0  0  0  0  0  0  0  0  0  0
   -0.0149   62.8744   69.7710 H   0  0  0  0  0  0  0  0  0  0  0  0
   -0.7102   63.1391   71.4172 H   0  0  0  0  0  0  0  0  0  0  0  0
    1.7284   60.8863   71.0527 H   0  0  0  0  0  0  0  0  0  0  0  0
    2.2375   61.5450   72.6925 H   0  0  0  0  0  0  0  0  0  0  0  0
   -0.6818   61.4928   72.0046 H   0  0  0  0  0  0  0  0  0  0  0  0
    0.1338   59.9535   72.4558 H   0  0  0  0  0  0  0  0  0  0  0  0
    0.9695   62.1388   74.2224 H   0  0  0  0  0  0  0  0  0  0  0  0
   -0.8497   61.9343   74.1912 H   0  0  0  0  0  0  0  0  0  0  0  0
    0.9835   60.3801   77.0040 H   0  0  0  0  0  0  0  0  0  0  0  0
    2.0923   59.6118   75.8179 H   0  0  0  0  0  0  0  0  0  0  0  0
    1.8726   61.3946   75.8179 H   0  0  0  0  0  0  0  0  0  0  0  0
   -0.6681   60.3153   75.5118 H   0  0  0  0  0  0  0  0  0  0  0  0
    0.1440   59.0340   73.1980 H   0  0  0  0  0  0  0  0  0  0  0  0
   -0.6300   57.7701   75.8573 H   0  0  0  0  0  0  0  0  0  0  0  0
   -1.7457   58.3638   74.5520 H   0  0  0  0  0  0  0  0  0  0  0  0
   -1.0377   55.7894   74.7793 H   0  0  0  0  0  0  0  0  0  0  0  0
   -1.3237   56.6303   73.1779 H   0  0  0  0  0  0  0  0  0  0  0  0
    0.8025   55.0841   73.6014 H   0  0  0  0  0  0  0  0  0  0  0  0
    0.8510   56.5794   72.5841 H   0  0  0  0  0  0  0  0  0  0  0  0
    1.6178   56.4043   75.5281 H   0  0  0  0  0  0  0  0  0  0  0  0
    2.7594   56.4613   74.1221 H   0  0  0  0  0  0  0  0  0  0  0  0
    2.0862   58.6542   75.4854 H   0  0  0  0  0  0  0  0  0  0  0  0
    2.3497   58.6407   73.6712 H   0  0  0  0  0  0  0  0  0  0  0  0
    0.6379   67.4062   70.3254 H   0  0  0  0  0  0  0  0  0  0  0  0
    2.3456   67.2959   69.6678 H   0  0  0  0  0  0  0  0  0  0  0  0
    1.3274   66.9564   67.3790 H   0  0  0  0  0  0  0  0  0  0  0  0
   -0.2654   67.4213   68.1246 H   0  0  0  0  0  0  0  0  0  0  0  0
    0.5646   69.6951   68.4190 H   0  0  0  0  0  0  0  0  0  0  0  0
    2.5787   70.8902   69.3821 H   0  0  0  0  0  0  0  0  0  0  0  0
    3.6223   69.4603   69.8424 H   0  0  0  0  0  0  0  0  0  0  0  0
    4.5285   72.2190   68.9454 H   0  0  0  0  0  0  0  0  0  0  0  0
    4.7813   71.4203   70.5393 H   0  0  0  0  0  0  0  0  0  0  0  0
    6.8276   71.2784   69.1811 H   0  0  0  0  0  0  0  0  0  0  0  0
    6.1136   69.6435   69.4132 H   0  0  0  0  0  0  0  0  0  0  0  0
    6.0010   71.4326   66.9520 H   0  0  0  0  0  0  0  0  0  0  0  0
    6.6959   69.7521   67.1392 H   0  0  0  0  0  0  0  0  0  0  0  0
    0.1081   68.5481   65.6780 H   0  0  0  0  0  0  0  0  0  0  0  0
    0.1568   68.0024   63.2505 H   0  0  0  0  0  0  0  0  0  0  0  0
    2.3170   68.0996   62.0067 H   0  0  0  0  0  0  0  0  0  0  0  0
    4.3981   68.7634   63.1902 H   0  0  0  0  0  0  0  0  0  0  0  0
  2  1  1  0
  3  2  1  0
  4  3  1  0
  5  4  1  0
  6  1  1  0
  6  5  1  0
  7  1  1  0
  8  7  1  0
  9  8  1  0
 11 10  1  0
 11  9  1  0
 12 11  1  0
 13 12  1  0
 14 13  1  0
 15 14  1  0
 16 15  1  0
 17 16  1  0
 17 12  1  0
 18  4  1  0
 19 18  1  0
 20 19  1  0
 21 20  1  0
 22 21  1  0
 23 22  1  0
 24 23  1  0
 25 24  1  0
 26 25  1  0
 27 22  2  0
 27 26  1  0
 28 27  1  0
 29 28  2  0
 30 29  1  0
 30 21  2  0
 31 30  1  0
 32 31  2  0
 33 32  1  0
 34 33  2  0
 34 29  1  0
  1 35  1  0
  2 36  1  0
  2 37  1  0
  3 38  1  0
  3 39  1  0
  4 40  1  0
  5 41  1  0
  5 42  1  0
  6 43  1  0
  6 44  1  0
  7 45  1  0
  7 46  1  0
  8 47  1  0
  8 48  1  0
  9 49  1  0
  9 50  1  0
 10 51  1  0
 10 52  1  0
 10 53  1  0
 11 54  1  1
 12 55  1  0
 13 56  1  0
 13 57  1  0
 14 58  1  0
 14 59  1  0
 15 60  1  0
 15 61  1  0
 16 62  1  0
 16 63  1  0
 17 64  1  0
 17 65  1  0
 18 66  1  0
 18 67  1  0
 19 68  1  0
 19 69  1  0
 20 70  1  0
 23 71  1  0
 23 72  1  0
 24 73  1  0
 24 74  1  0
 25 75  1  0
 25 76  1  0
 26 77  1  0
 26 78  1  0
 31 79  1  0
 32 80  1  0
 33 81  1  0
 34 82  1  0
M  CHG  3   1   1   4   1  11   1
M  END
>  <score>  (4) 
-9.838

$$$$
=
     RDKit          3D

 82 86  0  0  0  0  0  0  0  0999 V2000
    0.8030   64.4950   72.0430 N   0  0  0  0  0  4  0  0  0  0  0  0
    1.4030   63.8170   70.8090 C   0  0  0  0  0  0  0  0  0  0  0  0
    1.8930   64.8690   69.7740 C   0  0  0  0  0  0  0  0  0  0  0  0
    0.7980   65.8770   69.4030 N   0  0  0  0  0  4  0  0  0  0  0  0
    0.1320   66.4920   70.6310 C   0  0  0  0  0  0  0  0  0  0  0  0
   -0.3430   65.4320   71.6590 C   0  0  0  0  0  0  0  0  0  0  0  0
    0.5250   63.5780   73.2330 C   0  0  0  0  0  0  0  0  0  0  0  0
   -0.1370   62.2360   72.8790 C   0  0  0  0  0  0  0  0  0  0  0  0
    0.6710   61.0700   73.4980 C   0  0  0  0  0  0  0  0  0  0  0  0
    1.7250   58.8120   73.0320 C   0  0  0  0  0  0  0  0  0  0  0  0
    1.3610   60.1800   72.4720 N   0  0  2  0  0  4  0  0  0  0  0  0
    2.6370   60.8370   71.8310 C   0  0  0  0  0  0  0  0  0  0  0  0
    3.2830   59.9200   70.7850 C   0  0  0  0  0  0  0  0  0  0  0  0
    4.5210   60.5550   70.1420 C   0  0  0  0  0  0  0  0  0  0  0  0
    5.2520   61.5450   71.0460 C   0  0  0  0  0  0  0  0  0  0  0  0
    5.1080   61.1630   72.5080 C   0  0  0  0  0  0  0  0  0  0  0  0
    3.6440   61.1760   72.9520 C   0  0  0  0  0  0  0  0  0  0  0  0
    1.4000   66.9590   68.4480 C   0  0  0  0  0  0  0  0  0  0  0  0
    1.7810   68.2890   69.1510 C   0  0  0  0  0  0  0  0  0  0  0  0
    1.8630   69.4190   68.2110 N   0  0  0  0  0  0  0  0  0  0  0  0
    2.9960   69.4630   67.3610 C   0  0  0  0  0  0  0  0  0  0  0  0
    2.9310   69.0800   66.0070 C   0  0  0  0  0  0  0  0  0  0  0  0
    1.7310   68.3660   65.4240 C   0  0  0  0  0  0  0  0  0  0  0  0
    2.0190   67.6610   64.0990 C   0  0  0  0  0  0  0  0  0  0  0  0
    2.7480   68.6040   63.1530 C   0  0  0  0  0  0  0  0  0  0  0  0
    4.0960   68.9940   63.7480 C   0  0  0  0  0  0  0  0  0  0  0  0
    4.0230   69.4040   65.1990 C   0  0  0  0  0  0  0  0  0  0  0  0
    5.1160   70.0550   65.6670 N   0  0  0  0  0  0  0  0  0  0  0  0
    5.2560   70.2340   66.9850 C   0  0  0  0  0  0  0  0  0  0  0  0
    4.2190   69.9550   67.8910 C   0  0  0  0  0  0  0  0  0  0  0  0
    4.4350   70.1920   69.2700 C   0  0  0  0  0  0  0  0  0  0  0  0
    5.6460   70.7030   69.7340 C   0  0  0  0  0  0  0  0  0  0  0  0
    6.6570   70.9880   68.8270 C   0  0  0  0  0  0  0  0  0  0  0  0
    6.4520   70.7520   67.4650 C   0  0  0  0  0  0  0  0  0  0  0  0
    1.5495   65.0909   72.4285 H   0  0  0  0  0  0  0  0  0  0  0  0
    2.2553   63.1949   71.1198 H   0  0  0  0  0  0  0  0  0  0  0  0
    0.6248   63.1992   70.3371 H   0  0  0  0  0  0  0  0  0  0  0  0
    2.7461   65.4156   70.2024 H   0  0  0  0  0  0  0  0  0  0  0  0
    2.1785   64.3311   68.8580 H   0  0  0  0  0  0  0  0  0  0  0  0
    0.0446   65.3792   68.9076 H   0  0  0  0  0  0  0  0  0  0  0  0
    0.8544   67.1591   71.1241 H   0  0  0  0  0  0  0  0  0  0  0  0
   -0.7592   67.0355   70.2839 H   0  0  0  0  0  0  0  0  0  0  0  0
   -1.1589   64.8413   71.2169 H   0  0  0  0  0  0  0  0  0  0  0  0
   -0.6922   65.9507   72.5640 H   0  0  0  0  0  0  0  0  0  0  0  0
    1.4826   63.3652   73.7308 H   0  0  0  0  0  0  0  0  0  0  0  0
   -0.1907   64.1142   73.8735 H   0  0  0  0  0  0  0  0  0  0  0  0
   -1.1629   62.2196   73.2756 H   0  0  0  0  0  0  0  0  0  0  0  0
   -0.1590   62.1206   71.7853 H   0  0  0  0  0  0  0  0  0  0  0  0
    1.4400   61.4952   74.1597 H   0  0  0  0  0  0  0  0  0  0  0  0
   -0.0482   60.4356   74.0367 H   0  0  0  0  0  0  0  0  0  0  0  0
    1.7146   58.8512   74.1313 H   0  0  0  0  0  0  0  0  0  0  0  0
    0.9938   58.0672   72.6847 H   0  0  0  0  0  0  0  0  0  0  0  0
    2.7297   58.5291   72.6847 H   0  0  0  0  0  0  0  0  0  0  0  0
    0.6590   60.0584   71.7282 H   0  0  0  0  0  0  0  0  0  0  0  0
    2.3350   61.7571   71.3093 H   0  0  0  0  0  0  0  0  0  0  0  0
    3.5804   58.9803   71.2734 H   0  0  0  0  0  0  0  0  0  0  0  0
    2.5438   59.7423   69.9900 H   0  0  0  0  0  0  0  0  0  0  0  0
    5.2214   59.7509   69.8720 H   0  0  0  0  0  0  0  0  0  0  0  0
    4.1697   61.1223   69.2675 H   0  0  0  0  0  0  0  0  0  0  0  0
    6.3195   61.5526   70.7806 H   0  0  0  0  0  0  0  0  0  0  0  0
    4.8092   62.5415   70.9011 H   0  0  0  0  0  0  0  0  0  0  0  0
    5.5166   60.1523   72.6548 H   0  0  0  0  0  0  0  0  0  0  0  0
    5.6572   61.9003   73.1119 H   0  0  0  0  0  0  0  0  0  0  0  0
    3.5222   60.4386   73.7591 H   0  0  0  0  0  0  0  0  0  0  0  0
    3.4218   62.2038   73.2749 H   0  0  0  0  0  0  0  0  0  0  0  0
    2.3060   66.5429   67.9833 H   0  0  0  0  0  0  0  0  0  0  0  0
    0.6174   67.2029   67.7145 H   0  0  0  0  0  0  0  0  0  0  0  0
    1.0196   68.5170   69.9114 H   0  0  0  0  0  0  0  0  0  0  0  0
    2.7754   68.1562   69.6022 H   0  0  0  0  0  0  0  0  0  0  0  0
    1.1316   70.1432   68.1729 H   0  0  0  0  0  0  0  0  0  0  0  0
    1.3879   67.6141   66.1499 H   0  0  0  0  0  0  0  0  0  0  0  0
    0.9685   69.1324   65.2210 H   0  0  0  0  0  0  0  0  0  0  0  0
    2.6460   66.7767   64.2861 H   0  0  0  0  0  0  0  0  0  0  0  0
    1.0676   67.3546   63.6398 H   0  0  0  0  0  0  0  0  0  0  0  0
    2.9069   68.1015   62.1875 H   0  0  0  0  0  0  0  0  0  0  0  0
    2.1413   69.5095   63.0048 H   0  0  0  0  0  0  0  0  0  0  0  0
    4.7749   68.1325   63.6643 H   0  0  0  0  0  0  0  0  0  0  0  0
    4.4553   69.8678   63.1847 H   0  0  0  0  0  0  0  0  0  0  0  0
    3.6325   69.9688   69.9884 H   0  0  0  0  0  0  0  0  0  0  0  0
    5.7989   70.8787   70.8091 H   0  0  0  0  0  0  0  0  0  0  0  0
    7.6153   71.3978   69.1786 H   0  0  0  0  0  0  0  0  0  0  0  0
    7.2592   70.9826   66.7542 H   0  0  0  0  0  0  0  0  0  0  0  0
  2  1  1  0
  3  2  1  0
  4  3  1  0
  5  4  1  0
  6  1  1  0
  6  5  1  0
  7  1  1  0
  8  7  1  0
  9  8  1  0
 11 10  1  0
 11  9  1  0
 12 11  1  0
 13 12  1  0
 14 13  1  0
 15 14  1  0
 16 15  1  0
 17 16  1  0
 17 12  1  0
 18  4  1  0
 19 18  1  0
 20 19  1  0
 21 20  1  0
 22 21  1  0
 23 22  1  0
 24 23  1  0
 25 24  1  0
 26 25  1  0
 27 22  2  0
 27 26  1  0
 28 27  1  0
 29 28  2  0
 30 29  1  0
 30 21  2  0
 31 30  1  0
 32 31  2  0
 33 32  1  0
 34 33  2  0
 34 29  1  0
  1 35  1  0
  2 36  1  0
  2 37  1  0
  3 38  1  0
  3 39  1  0
  4 40  1  0
  5 41  1  0
  5 42  1  0
  6 43  1  0
  6 44  1  0
  7 45  1  0
  7 46  1  0
  8 47  1  0
  8 48  1  0
  9 49  1  0
  9 50  1  0
 10 51  1  0
 10 52  1  0
 10 53  1  0
 11 54  1  6
 12 55  1  0
 13 56  1  0
 13 57  1  0
 14 58  1  0
 14 59  1  0
 15 60  1  0
 15 61  1  0
 16 62  1  0
 16 63  1  0
 17 64  1  0
 17 65  1  0
 18 66  1  0
 18 67  1  0
 19 68  1  0
 19 69  1  0
 20 70  1  0
 23 71  1  0
 23 72  1  0
 24 73  1  0
 24 74  1  0
 25 75  1  0
 25 76  1  0
 26 77  1  0
 26 78  1  0
 31 79  1  0
 32 80  1  0
 33 81  1  0
 34 82  1  0
M  CHG  3   1   1   4   1  11   1
M  END
>  <score>  (5) 
-9.824

$$$$
=
     RDKit          3D

 82 86  0  0  0  0  0  0  0  0999 V2000
    0.6490   67.2320   67.1100 N   0  0  0  0  0  4  0  0  0  0  0  0
    1.5670   67.7220   68.2310 C   0  0  0  0  0  0  0  0  0  0  0  0
    1.4650   66.8010   69.4810 C   0  0  0  0  0  0  0  0  0  0  0  0
    0.0190   66.6200   69.9570 N   0  0  0  0  0  4  0  0  0  0  0  0
   -0.9220   66.2190   68.8230 C   0  0  0  0  0  0  0  0  0  0  0  0
   -0.8020   67.1400   67.5810 C   0  0  0  0  0  0  0  0  0  0  0  0
    0.8520   67.8980   65.7490 C   0  0  0  0  0  0  0  0  0  0  0  0
    2.3200   68.0780   65.3270 C   0  0  0  0  0  0  0  0  0  0  0  0
    2.8420   69.4540   65.8040 C   0  0  0  0  0  0  0  0  0  0  0  0
    4.9980   68.5090   64.8620 C   0  0  0  0  0  0  0  0  0  0  0  0
    4.3490   69.6270   65.6680 N   0  0  2  0  0  4  0  0  0  0  0  0
    5.0900   69.7740   67.0460 C   0  0  0  0  0  0  0  0  0  0  0  0
    4.1710   70.3630   68.1240 C   0  0  0  0  0  0  0  0  0  0  0  0
    4.8780   70.4980   69.4780 C   0  0  0  0  0  0  0  0  0  0  0  0
    6.3870   70.7010   69.3730 C   0  0  0  0  0  0  0  0  0  0  0  0
    6.7550   71.4430   68.1010 C   0  0  0  0  0  0  0  0  0  0  0  0
    6.3390   70.6620   66.8530 C   0  0  0  0  0  0  0  0  0  0  0  0
   -0.0070   65.6000   71.1410 C   0  0  0  0  0  0  0  0  0  0  0  0
    0.5390   64.1930   70.7820 C   0  0  0  0  0  0  0  0  0  0  0  0
    1.8290   63.9070   71.4330 N   0  0  0  0  0  0  0  0  0  0  0  0
    1.9610   62.6450   72.0640 C   0  0  0  0  0  0  0  0  0  0  0  0
    1.4890   62.4080   73.3690 C   0  0  0  0  0  0  0  0  0  0  0  0
    1.0360   63.5260   74.2820 C   0  0  0  0  0  0  0  0  0  0  0  0
    0.9830   63.1320   75.7580 C   0  0  0  0  0  0  0  0  0  0  0  0
    0.2450   61.8110   75.9190 C   0  0  0  0  0  0  0  0  0  0  0  0
    1.0020   60.7040   75.1930 C   0  0  0  0  0  0  0  0  0  0  0  0
    1.4330   61.0800   73.7960 C   0  0  0  0  0  0  0  0  0  0  0  0
    1.8130   60.0400   73.0140 N   0  0  0  0  0  0  0  0  0  0  0  0
    2.4450   60.2850   71.8610 C   0  0  0  0  0  0  0  0  0  0  0  0
    2.5500   61.5810   71.3290 C   0  0  0  0  0  0  0  0  0  0  0  0
    3.2140   61.7580   70.0900 C   0  0  0  0  0  0  0  0  0  0  0  0
    3.7480   60.6750   69.3960 C   0  0  0  0  0  0  0  0  0  0  0  0
    3.6240   59.3990   69.9260 C   0  0  0  0  0  0  0  0  0  0  0  0
    2.9750   59.2170   71.1490 C   0  0  0  0  0  0  0  0  0  0  0  0
    0.9486   66.2689   66.9012 H   0  0  0  0  0  0  0  0  0  0  0  0
    2.6060   67.7236   67.8697 H   0  0  0  0  0  0  0  0  0  0  0  0
    1.2562   68.7372   68.5186 H   0  0  0  0  0  0  0  0  0  0  0  0
    1.8796   65.8142   69.2275 H   0  0  0  0  0  0  0  0  0  0  0  0
    2.0292   67.2779   70.2960 H   0  0  0  0  0  0  0  0  0  0  0  0
   -0.3343   67.5272   70.2933 H   0  0  0  0  0  0  0  0  0  0  0  0
   -0.6856   65.1885   68.5193 H   0  0  0  0  0  0  0  0  0  0  0  0
   -1.9508   66.3100   69.2017 H   0  0  0  0  0  0  0  0  0  0  0  0
   -1.1604   68.1465   67.8427 H   0  0  0  0  0  0  0  0  0  0  0  0
   -1.4097   66.7157   66.7682 H   0  0  0  0  0  0  0  0  0  0  0  0
    0.3514   67.2805   64.9887 H   0  0  0  0  0  0  0  0  0  0  0  0
    0.4303   68.9102   65.8356 H   0  0  0  0  0  0  0  0  0  0  0  0
    2.9292   67.2808   65.7780 H   0  0  0  0  0  0  0  0  0  0  0  0
    2.3899   68.0253   64.2305 H   0  0  0  0  0  0  0  0  0  0  0  0
    2.3490   70.2363   65.2081 H   0  0  0  0  0  0  0  0  0  0  0  0
    2.6091   69.5279   66.8765 H   0  0  0  0  0  0  0  0  0  0  0  0
    5.4297   67.7654   65.5481 H   0  0  0  0  0  0  0  0  0  0  0  0
    4.2397   68.0263   64.2280 H   0  0  0  0  0  0  0  0  0  0  0  0
    5.7932   68.9281   64.2280 H   0  0  0  0  0  0  0  0  0  0  0  0
    4.4571   70.5132   65.1542 H   0  0  0  0  0  0  0  0  0  0  0  0
    5.3926   68.7745   67.3916 H   0  0  0  0  0  0  0  0  0  0  0  0
    3.8362   71.3590   67.7984 H   0  0  0  0  0  0  0  0  0  0  0  0
    3.3208   69.6773   68.2541 H   0  0  0  0  0  0  0  0  0  0  0  0
    4.4489   71.3613   70.0077 H   0  0  0  0  0  0  0  0  0  0  0  0
    4.7210   69.5508   70.0148 H   0  0  0  0  0  0  0  0  0  0  0  0
    6.7317   71.2832   70.2403 H   0  0  0  0  0  0  0  0  0  0  0  0
    6.8702   69.7130   69.3515 H   0  0  0  0  0  0  0  0  0  0  0  0
    6.2471   72.4187   68.0973 H   0  0  0  0  0  0  0  0  0  0  0  0
    7.8476   71.5687   68.0799 H   0  0  0  0  0  0  0  0  0  0  0  0
    6.1282   71.3832   66.0496 H   0  0  0  0  0  0  0  0  0  0  0  0
    7.1724   69.9856   66.6123 H   0  0  0  0  0  0  0  0  0  0  0  0
    0.6029   66.0076   71.9606 H   0  0  0  0  0  0  0  0  0  0  0  0
   -1.0627   65.4671   71.4198 H   0  0  0  0  0  0  0  0  0  0  0  0
   -0.1935   63.4377   71.1029 H   0  0  0  0  0  0  0  0  0  0  0  0
    0.6991   64.1636   69.6941 H   0  0  0  0  0  0  0  0  0  0  0  0
    2.5985   64.5917   71.4297 H   0  0  0  0  0  0  0  0  0  0  0  0
    1.7349   64.3683   74.1725 H   0  0  0  0  0  0  0  0  0  0  0  0
    0.0107   63.7891   73.9830 H   0  0  0  0  0  0  0  0  0  0  0  0
    2.0078   63.0259   76.1435 H   0  0  0  0  0  0  0  0  0  0  0  0
    0.4511   63.9132   76.3209 H   0  0  0  0  0  0  0  0  0  0  0  0
    0.1708   61.5622   76.9879 H   0  0  0  0  0  0  0  0  0  0  0  0
   -0.7632   61.9037   75.4889 H   0  0  0  0  0  0  0  0  0  0  0  0
    1.8995   60.4552   75.7783 H   0  0  0  0  0  0  0  0  0  0  0  0
    0.3132   59.8515   75.0988 H   0  0  0  0  0  0  0  0  0  0  0  0
    3.3095   62.7695   69.6684 H   0  0  0  0  0  0  0  0  0  0  0  0
    4.2633   60.8300   68.4366 H   0  0  0  0  0  0  0  0  0  0  0  0
    4.0353   58.5340   69.3850 H   0  0  0  0  0  0  0  0  0  0  0  0
    2.8811   58.2007   71.5593 H   0  0  0  0  0  0  0  0  0  0  0  0
  2  1  1  0
  3  2  1  0
  4  3  1  0
  5  4  1  0
  6  1  1  0
  6  5  1  0
  7  1  1  0
  8  7  1  0
  9  8  1  0
 11 10  1  0
 11  9  1  0
 12 11  1  0
 13 12  1  0
 14 13  1  0
 15 14  1  0
 16 15  1  0
 17 16  1  0
 17 12  1  0
 18  4  1  0
 19 18  1  0
 20 19  1  0
 21 20  1  0
 22 21  1  0
 23 22  1  0
 24 23  1  0
 25 24  1  0
 26 25  1  0
 27 22  2  0
 27 26  1  0
 28 27  1  0
 29 28  2  0
 30 29  1  0
 30 21  2  0
 31 30  1  0
 32 31  2  0
 33 32  1  0
 34 33  2  0
 34 29  1  0
  1 35  1  0
  2 36  1  0
  2 37  1  0
  3 38  1  0
  3 39  1  0
  4 40  1  0
  5 41  1  0
  5 42  1  0
  6 43  1  0
  6 44  1  0
  7 45  1  0
  7 46  1  0
  8 47  1  0
  8 48  1  0
  9 49  1  0
  9 50  1  0
 10 51  1  0
 10 52  1  0
 10 53  1  0
 11 54  1  6
 12 55  1  0
 13 56  1  0
 13 57  1  0
 14 58  1  0
 14 59  1  0
 15 60  1  0
 15 61  1  0
 16 62  1  0
 16 63  1  0
 17 64  1  0
 17 65  1  0
 18 66  1  0
 18 67  1  0
 19 68  1  0
 19 69  1  0
 20 70  1  0
 23 71  1  0
 23 72  1  0
 24 73  1  0
 24 74  1  0
 25 75  1  0
 25 76  1  0
 26 77  1  0
 26 78  1  0
 31 79  1  0
 32 80  1  0
 33 81  1  0
 34 82  1  0
M  CHG  3   1   1   4   1  11   1
M  END
>  <score>  (6) 
-9.745

$$$$
=
     RDKit          3D

 82 86  0  0  0  0  0  0  0  0999 V2000
    0.5820   65.3300   70.4150 N   0  0  0  0  0  4  0  0  0  0  0  0
   -0.8700   65.7200   70.1280 C   0  0  0  0  0  0  0  0  0  0  0  0
   -1.0280   66.2640   68.6780 C   0  0  0  0  0  0  0  0  0  0  0  0
   -0.0510   67.4060   68.3730 N   0  0  0  0  0  4  0  0  0  0  0  0
    1.3880   67.0570   68.7420 C   0  0  0  0  0  0  0  0  0  0  0  0
    1.5290   66.5080   70.1860 C   0  0  0  0  0  0  0  0  0  0  0  0
    0.8140   64.5480   71.7070 C   0  0  0  0  0  0  0  0  0  0  0  0
    0.0650   63.2070   71.7980 C   0  0  0  0  0  0  0  0  0  0  0  0
    0.9220   62.1760   72.5710 C   0  0  0  0  0  0  0  0  0  0  0  0
    1.7940   59.7980   72.4550 C   0  0  0  0  0  0  0  0  0  0  0  0
    1.5240   61.0880   71.6910 N   0  0  2  0  0  4  0  0  0  0  0  0
    2.8350   61.5380   70.9480 C   0  0  0  0  0  0  0  0  0  0  0  0
    3.6120   62.5860   71.7530 C   0  0  0  0  0  0  0  0  0  0  0  0
    4.9000   63.0230   71.0450 C   0  0  0  0  0  0  0  0  0  0  0  0
    4.8370   62.9220   69.5240 C   0  0  0  0  0  0  0  0  0  0  0  0
    3.4250   63.1470   69.0160 C   0  0  0  0  0  0  0  0  0  0  0  0
    2.4570   62.0930   69.5570 C   0  0  0  0  0  0  0  0  0  0  0  0
   -0.1980   67.8180   66.8720 C   0  0  0  0  0  0  0  0  0  0  0  0
    1.1380   67.8400   66.0830 C   0  0  0  0  0  0  0  0  0  0  0  0
    1.7050   69.1940   65.9750 N   0  0  0  0  0  0  0  0  0  0  0  0
    3.1010   69.2870   65.7480 C   0  0  0  0  0  0  0  0  0  0  0  0
    3.6770   68.9910   64.4970 C   0  0  0  0  0  0  0  0  0  0  0  0
    2.9000   68.3210   63.3860 C   0  0  0  0  0  0  0  0  0  0  0  0
    3.7840   67.7010   62.3040 C   0  0  0  0  0  0  0  0  0  0  0  0
    4.8430   68.6990   61.8580 C   0  0  0  0  0  0  0  0  0  0  0  0
    5.7550   69.0440   63.0300 C   0  0  0  0  0  0  0  0  0  0  0  0
    5.0100   69.3610   64.3050 C   0  0  0  0  0  0  0  0  0  0  0  0
    5.7480   69.9760   65.2620 N   0  0  0  0  0  0  0  0  0  0  0  0
    5.2600   70.0690   66.5040 C   0  0  0  0  0  0  0  0  0  0  0  0
    3.9300   69.7380   66.8100 C   0  0  0  0  0  0  0  0  0  0  0  0
    3.4800   69.8860   68.1450 C   0  0  0  0  0  0  0  0  0  0  0  0
    4.3280   70.3610   69.1440 C   0  0  0  0  0  0  0  0  0  0  0  0
    5.6350   70.6980   68.8250 C   0  0  0  0  0  0  0  0  0  0  0  0
    6.0860   70.5500   67.5110 C   0  0  0  0  0  0  0  0  0  0  0  0
    0.8275   64.6190   69.7114 H   0  0  0  0  0  0  0  0  0  0  0  0
   -1.5109   64.8346   70.2514 H   0  0  0  0  0  0  0  0  0  0  0  0
   -1.1648   66.5118   70.8323 H   0  0  0  0  0  0  0  0  0  0  0  0
   -0.8433   65.4424   67.9703 H   0  0  0  0  0  0  0  0  0  0  0  0
   -2.0493   66.6602   68.5776 H   0  0  0  0  0  0  0  0  0  0  0  0
   -0.2922   68.2142   68.9643 H   0  0  0  0  0  0  0  0  0  0  0  0
    1.7544   66.2937   68.0398 H   0  0  0  0  0  0  0  0  0  0  0  0
    1.9760   67.9849   68.6846 H   0  0  0  0  0  0  0  0  0  0  0  0
    1.2881   67.3084   70.9010 H   0  0  0  0  0  0  0  0  0  0  0  0
    2.5630   66.1620   70.3318 H   0  0  0  0  0  0  0  0  0  0  0  0
    1.8914   64.3438   71.7937 H   0  0  0  0  0  0  0  0  0  0  0  0
    0.4219   65.1754   72.5211 H   0  0  0  0  0  0  0  0  0  0  0  0
   -0.8887   63.3570   72.3253 H   0  0  0  0  0  0  0  0  0  0  0  0
   -0.1266   62.8298   70.7826 H   0  0  0  0  0  0  0  0  0  0  0  0
    1.7433   62.7124   73.0687 H   0  0  0  0  0  0  0  0  0  0  0  0
    0.2510   61.6744   73.2838 H   0  0  0  0  0  0  0  0  0  0  0  0
    1.7524   59.9966   73.5361 H   0  0  0  0  0  0  0  0  0  0  0  0
    1.0332   59.0490   72.1903 H   0  0  0  0  0  0  0  0  0  0  0  0
    2.7914   59.4170   72.1903 H   0  0  0  0  0  0  0  0  0  0  0  0
    0.8017   60.9078   70.9792 H   0  0  0  0  0  0  0  0  0  0  0  0
    3.4944   60.6647   70.8361 H   0  0  0  0  0  0  0  0  0  0  0  0
    2.9709   63.4680   71.8980 H   0  0  0  0  0  0  0  0  0  0  0  0
    3.8929   62.1324   72.7149 H   0  0  0  0  0  0  0  0  0  0  0  0
    5.1044   64.0698   71.3140 H   0  0  0  0  0  0  0  0  0  0  0  0
    5.6938   62.3376   71.3768 H   0  0  0  0  0  0  0  0  0  0  0  0
    5.5009   63.6820   69.0863 H   0  0  0  0  0  0  0  0  0  0  0  0
    5.1559   61.9114   69.2290 H   0  0  0  0  0  0  0  0  0  0  0  0
    3.0846   64.1425   69.3370 H   0  0  0  0  0  0  0  0  0  0  0  0
    3.4380   63.0711   67.9187 H   0  0  0  0  0  0  0  0  0  0  0  0
    1.4574   62.5468   69.6270 H   0  0  0  0  0  0  0  0  0  0  0  0
    2.4928   61.2440   68.8585 H   0  0  0  0  0  0  0  0  0  0  0  0
   -0.8754   67.1025   66.3829 H   0  0  0  0  0  0  0  0  0  0  0  0
   -0.5860   68.8473   66.8640 H   0  0  0  0  0  0  0  0  0  0  0  0
    1.8633   67.1936   66.5989 H   0  0  0  0  0  0  0  0  0  0  0  0
    0.9310   67.4814   65.0639 H   0  0  0  0  0  0  0  0  0  0  0  0
    1.1153   70.0341   66.0603 H   0  0  0  0  0  0  0  0  0  0  0  0
    2.2808   67.5255   63.8263 H   0  0  0  0  0  0  0  0  0  0  0  0
    2.2972   69.1020   62.8995 H   0  0  0  0  0  0  0  0  0  0  0  0
    4.2765   66.8036   62.7067 H   0  0  0  0  0  0  0  0  0  0  0  0
    3.1590   67.4295   61.4405 H   0  0  0  0  0  0  0  0  0  0  0  0
    5.4415   68.2582   61.0472 H   0  0  0  0  0  0  0  0  0  0  0  0
    4.3503   69.6150   61.4998 H   0  0  0  0  0  0  0  0  0  0  0  0
    6.4176   68.1865   63.2188 H   0  0  0  0  0  0  0  0  0  0  0  0
    6.3117   69.9501   62.7488 H   0  0  0  0  0  0  0  0  0  0  0  0
    2.4427   69.6213   68.3978 H   0  0  0  0  0  0  0  0  0  0  0  0
    3.9638   70.4677   70.1765 H   0  0  0  0  0  0  0  0  0  0  0  0
    6.3130   71.0798   69.6025 H   0  0  0  0  0  0  0  0  0  0  0  0
    7.1237   70.8219   67.2676 H   0  0  0  0  0  0  0  0  0  0  0  0
  2  1  1  0
  3  2  1  0
  4  3  1  0
  5  4  1  0
  6  1  1  0
  6  5  1  0
  7  1  1  0
  8  7  1  0
  9  8  1  0
 11 10  1  0
 11  9  1  0
 12 11  1  0
 13 12  1  0
 14 13  1  0
 15 14  1  0
 16 15  1  0
 17 16  1  0
 17 12  1  0
 18  4  1  0
 19 18  1  0
 20 19  1  0
 21 20  1  0
 22 21  1  0
 23 22  1  0
 24 23  1  0
 25 24  1  0
 26 25  1  0
 27 22  2  0
 27 26  1  0
 28 27  1  0
 29 28  2  0
 30 29  1  0
 30 21  2  0
 31 30  1  0
 32 31  2  0
 33 32  1  0
 34 33  2  0
 34 29  1  0
  1 35  1  0
  2 36  1  0
  2 37  1  0
  3 38  1  0
  3 39  1  0
  4 40  1  0
  5 41  1  0
  5 42  1  0
  6 43  1  0
  6 44  1  0
  7 45  1  0
  7 46  1  0
  8 47  1  0
  8 48  1  0
  9 49  1  0
  9 50  1  0
 10 51  1  0
 10 52  1  0
 10 53  1  0
 11 54  1  6
 12 55  1  0
 13 56  1  0
 13 57  1  0
 14 58  1  0
 14 59  1  0
 15 60  1  0
 15 61  1  0
 16 62  1  0
 16 63  1  0
 17 64  1  0
 17 65  1  0
 18 66  1  0
 18 67  1  0
 19 68  1  0
 19 69  1  0
 20 70  1  0
 23 71  1  0
 23 72  1  0
 24 73  1  0
 24 74  1  0
 25 75  1  0
 25 76  1  0
 26 77  1  0
 26 78  1  0
 31 79  1  0
 32 80  1  0
 33 81  1  0
 34 82  1  0
M  CHG  3   1   1   4   1  11   1
M  END
>  <score>  (7) 
-9.72

$$$$
=
     RDKit          3D

 82 86  0  0  0  0  0  0  0  0999 V2000
    0.4110   67.6930   67.1170 N   0  0  0  0  0  4  0  0  0  0  0  0
    1.2860   68.2770   68.2280 C   0  0  0  0  0  0  0  0  0  0  0  0
    1.4440   67.2700   69.4040 C   0  0  0  0  0  0  0  0  0  0  0  0
    0.0940   66.7730   69.9330 N   0  0  0  0  0  4  0  0  0  0  0  0
   -0.8210   66.2720   68.8170 C   0  0  0  0  0  0  0  0  0  0  0  0
   -0.9610   67.2820   67.6490 C   0  0  0  0  0  0  0  0  0  0  0  0
    0.3950   68.4790   65.8060 C   0  0  0  0  0  0  0  0  0  0  0  0
    1.1280   67.8040   64.6350 C   0  0  0  0  0  0  0  0  0  0  0  0
    1.9750   66.6190   65.1560 C   0  0  0  0  0  0  0  0  0  0  0  0
    3.6710   64.8200   64.5950 C   0  0  0  0  0  0  0  0  0  0  0  0
    3.0420   66.1420   64.1780 N   0  0  2  0  0  4  0  0  0  0  0  0
    4.1750   67.2010   63.9220 C   0  0  0  0  0  0  0  0  0  0  0  0
    4.0860   68.3760   64.9040 C   0  0  0  0  0  0  0  0  0  0  0  0
    5.1940   69.4100   64.6730 C   0  0  0  0  0  0  0  0  0  0  0  0
    5.6900   69.4780   63.2320 C   0  0  0  0  0  0  0  0  0  0  0  0
    4.5830   69.1300   62.2530 C   0  0  0  0  0  0  0  0  0  0  0  0
    4.0720   67.7030   62.4650 C   0  0  0  0  0  0  0  0  0  0  0  0
    0.3410   65.6870   71.0310 C   0  0  0  0  0  0  0  0  0  0  0  0
    1.4030   64.6230   70.6470 C   0  0  0  0  0  0  0  0  0  0  0  0
    0.8270   63.2740   70.5240 N   0  0  0  0  0  0  0  0  0  0  0  0
    1.3170   62.2850   71.4130 C   0  0  0  0  0  0  0  0  0  0  0  0
    0.4630   61.5410   72.2490 C   0  0  0  0  0  0  0  0  0  0  0  0
   -0.9930   61.9020   72.4460 C   0  0  0  0  0  0  0  0  0  0  0  0
   -1.6210   61.2700   73.6880 C   0  0  0  0  0  0  0  0  0  0  0  0
   -1.2980   59.7830   73.7380 C   0  0  0  0  0  0  0  0  0  0  0  0
    0.2090   59.5840   73.8540 C   0  0  0  0  0  0  0  0  0  0  0  0
    1.0070   60.4250   72.8880 C   0  0  0  0  0  0  0  0  0  0  0  0
    2.3010   60.0490   72.7350 N   0  0  0  0  0  0  0  0  0  0  0  0
    3.1500   60.8690   72.1060 C   0  0  0  0  0  0  0  0  0  0  0  0
    2.7120   62.0130   71.4190 C   0  0  0  0  0  0  0  0  0  0  0  0
    3.6700   62.8200   70.7570 C   0  0  0  0  0  0  0  0  0  0  0  0
    5.0240   62.4910   70.7690 C   0  0  0  0  0  0  0  0  0  0  0  0
    5.4410   61.3500   71.4400 C   0  0  0  0  0  0  0  0  0  0  0  0
    4.5030   60.5520   72.0990 C   0  0  0  0  0  0  0  0  0  0  0  0
    0.8771   66.8249   66.8169 H   0  0  0  0  0  0  0  0  0  0  0  0
    2.2799   68.5094   67.8179 H   0  0  0  0  0  0  0  0  0  0  0  0
    0.8031   69.1883   68.6106 H   0  0  0  0  0  0  0  0  0  0  0  0
    2.0258   66.4051   69.0527 H   0  0  0  0  0  0  0  0  0  0  0  0
    1.9548   67.7922   70.2264 H   0  0  0  0  0  0  0  0  0  0  0  0
   -0.4061   67.5669   70.3579 H   0  0  0  0  0  0  0  0  0  0  0  0
   -0.4083   65.3326   68.4205 H   0  0  0  0  0  0  0  0  0  0  0  0
   -1.8218   66.1300   69.2509 H   0  0  0  0  0  0  0  0  0  0  0  0
   -1.4910   68.1766   68.0079 H   0  0  0  0  0  0  0  0  0  0  0  0
   -1.5246   66.8025   66.8351 H   0  0  0  0  0  0  0  0  0  0  0  0
   -0.6540   68.6292   65.5109 H   0  0  0  0  0  0  0  0  0  0  0  0
    0.9316   69.4185   66.0042 H   0  0  0  0  0  0  0  0  0  0  0  0
    0.3903   67.4331   63.9082 H   0  0  0  0  0  0  0  0  0  0  0  0
    1.7903   68.5373   64.1517 H   0  0  0  0  0  0  0  0  0  0  0  0
    2.4730   66.9322   66.0855 H   0  0  0  0  0  0  0  0  0  0  0  0
    1.2840   65.7769   65.3085 H   0  0  0  0  0  0  0  0  0  0  0  0
    3.7004   64.7581   65.6929 H   0  0  0  0  0  0  0  0  0  0  0  0
    3.0725   63.9874   64.1967 H   0  0  0  0  0  0  0  0  0  0  0  0
    4.6946   64.7592   64.1967 H   0  0  0  0  0  0  0  0  0  0  0  0
    2.5324   66.0031   63.2938 H   0  0  0  0  0  0  0  0  0  0  0  0
    5.1507   66.7195   64.0839 H   0  0  0  0  0  0  0  0  0  0  0  0
    3.1104   68.8686   64.7793 H   0  0  0  0  0  0  0  0  0  0  0  0
    4.2054   67.9752   65.9214 H   0  0  0  0  0  0  0  0  0  0  0  0
    4.8060   70.4007   64.9522 H   0  0  0  0  0  0  0  0  0  0  0  0
    6.0508   69.1009   65.2897 H   0  0  0  0  0  0  0  0  0  0  0  0
    6.0464   70.4975   63.0230 H   0  0  0  0  0  0  0  0  0  0  0  0
    6.5049   68.7494   63.1095 H   0  0  0  0  0  0  0  0  0  0  0  0
    3.7484   69.8327   62.3933 H   0  0  0  0  0  0  0  0  0  0  0  0
    4.9898   69.2021   61.2335 H   0  0  0  0  0  0  0  0  0  0  0  0
    3.0151   67.6670   62.1621 H   0  0  0  0  0  0  0  0  0  0  0  0
    4.7130   67.0456   61.8592 H   0  0  0  0  0  0  0  0  0  0  0  0
    0.6765   66.1938   71.9479 H   0  0  0  0  0  0  0  0  0  0  0  0
   -0.6100   65.1503   71.1637 H   0  0  0  0  0  0  0  0  0  0  0  0
    1.8525   64.9044   69.6833 H   0  0  0  0  0  0  0  0  0  0  0  0
    2.1548   64.5947   71.4495 H   0  0  0  0  0  0  0  0  0  0  0  0
    0.1020   63.0589   69.8247 H   0  0  0  0  0  0  0  0  0  0  0  0
   -1.0704   62.9956   72.5362 H   0  0  0  0  0  0  0  0  0  0  0  0
   -1.5410   61.5124   71.5755 H   0  0  0  0  0  0  0  0  0  0  0  0
   -1.2203   61.7599   74.5877 H   0  0  0  0  0  0  0  0  0  0  0  0
   -2.7124   61.4003   73.6458 H   0  0  0  0  0  0  0  0  0  0  0  0
   -1.7939   59.3310   74.6096 H   0  0  0  0  0  0  0  0  0  0  0  0
   -1.6572   59.3027   72.8159 H   0  0  0  0  0  0  0  0  0  0  0  0
    0.5162   59.8447   74.8776 H   0  0  0  0  0  0  0  0  0  0  0  0
    0.4144   58.5312   73.6101 H   0  0  0  0  0  0  0  0  0  0  0  0
    3.3387   63.7232   70.2236 H   0  0  0  0  0  0  0  0  0  0  0  0
    5.7552   63.1295   70.2516 H   0  0  0  0  0  0  0  0  0  0  0  0
    6.5060   61.0752   71.4528 H   0  0  0  0  0  0  0  0  0  0  0  0
    4.8442   59.6489   72.6263 H   0  0  0  0  0  0  0  0  0  0  0  0
  2  1  1  0
  3  2  1  0
  4  3  1  0
  5  4  1  0
  6  1  1  0
  6  5  1  0
  7  1  1  0
  8  7  1  0
  9  8  1  0
 11 10  1  0
 11  9  1  0
 12 11  1  0
 13 12  1  0
 14 13  1  0
 15 14  1  0
 16 15  1  0
 17 16  1  0
 17 12  1  0
 18  4  1  0
 19 18  1  0
 20 19  1  0
 21 20  1  0
 22 21  1  0
 23 22  1  0
 24 23  1  0
 25 24  1  0
 26 25  1  0
 27 22  2  0
 27 26  1  0
 28 27  1  0
 29 28  2  0
 30 29  1  0
 30 21  2  0
 31 30  1  0
 32 31  2  0
 33 32  1  0
 34 33  2  0
 34 29  1  0
  1 35  1  0
  2 36  1  0
  2 37  1  0
  3 38  1  0
  3 39  1  0
  4 40  1  0
  5 41  1  0
  5 42  1  0
  6 43  1  0
  6 44  1  0
  7 45  1  0
  7 46  1  0
  8 47  1  0
  8 48  1  0
  9 49  1  0
  9 50  1  0
 10 51  1  0
 10 52  1  0
 10 53  1  0
 11 54  1  6
 12 55  1  0
 13 56  1  0
 13 57  1  0
 14 58  1  0
 14 59  1  0
 15 60  1  0
 15 61  1  0
 16 62  1  0
 16 63  1  0
 17 64  1  0
 17 65  1  0
 18 66  1  0
 18 67  1  0
 19 68  1  0
 19 69  1  0
 20 70  1  0
 23 71  1  0
 23 72  1  0
 24 73  1  0
 24 74  1  0
 25 75  1  0
 25 76  1  0
 26 77  1  0
 26 78  1  0
 31 79  1  0
 32 80  1  0
 33 81  1  0
 34 82  1  0
M  CHG  3   1   1   4   1  11   1
M  END
>  <score>  (8) 
-9.615

$$$$
=
     RDKit          3D

 82 86  0  0  0  0  0  0  0  0999 V2000
    1.0170   65.1660   70.2000 N   0  0  0  0  0  4  0  0  0  0  0  0
   -0.4840   65.3850   69.9990 C   0  0  0  0  0  0  0  0  0  0  0  0
   -0.7620   66.2120   68.7110 C   0  0  0  0  0  0  0  0  0  0  0  0
    0.0230   67.5290   68.6810 N   0  0  0  0  0  4  0  0  0  0  0  0
    1.5090   67.3290   68.9700 C   0  0  0  0  0  0  0  0  0  0  0  0
    1.7700   66.4960   70.2520 C   0  0  0  0  0  0  0  0  0  0  0  0
    1.4000   64.1570   71.2820 C   0  0  0  0  0  0  0  0  0  0  0  0
    1.0960   62.6890   70.9380 C   0  0  0  0  0  0  0  0  0  0  0  0
    2.3800   61.9880   70.4340 C   0  0  0  0  0  0  0  0  0  0  0  0
    4.8800   62.3310   70.6760 C   0  0  0  0  0  0  0  0  0  0  0  0
    3.5590   62.0900   71.3930 N   0  0  2  0  0  4  0  0  0  0  0  0
    3.7010   60.8460   72.3440 C   0  0  0  0  0  0  0  0  0  0  0  0
    2.8670   59.6570   71.8520 C   0  0  0  0  0  0  0  0  0  0  0  0
    3.0090   58.4320   72.7630 C   0  0  0  0  0  0  0  0  0  0  0  0
    3.3170   58.7740   74.2180 C   0  0  0  0  0  0  0  0  0  0  0  0
    2.7080   60.1070   74.6110 C   0  0  0  0  0  0  0  0  0  0  0  0
    3.2740   61.2540   73.7710 C   0  0  0  0  0  0  0  0  0  0  0  0
   -0.2250   68.2420   67.3120 C   0  0  0  0  0  0  0  0  0  0  0  0
    0.9880   68.2090   66.3460 C   0  0  0  0  0  0  0  0  0  0  0  0
    1.6810   69.5060   66.2680 N   0  0  0  0  0  0  0  0  0  0  0  0
    3.0720   69.4730   65.9970 C   0  0  0  0  0  0  0  0  0  0  0  0
    3.5800   69.1220   64.7320 C   0  0  0  0  0  0  0  0  0  0  0  0
    2.7120   68.5200   63.6500 C   0  0  0  0  0  0  0  0  0  0  0  0
    3.5030   67.8190   62.5450 C   0  0  0  0  0  0  0  0  0  0  0  0
    4.6310   68.7170   62.0600 C   0  0  0  0  0  0  0  0  0  0  0  0
    5.6070   68.9840   63.2010 C   0  0  0  0  0  0  0  0  0  0  0  0
    4.9340   69.3710   64.4960 C   0  0  0  0  0  0  0  0  0  0  0  0
    5.7520   69.9220   65.4250 N   0  0  0  0  0  0  0  0  0  0  0  0
    5.3140   70.0640   66.6810 C   0  0  0  0  0  0  0  0  0  0  0  0
    3.9700   69.8530   67.0310 C   0  0  0  0  0  0  0  0  0  0  0  0
    3.5770   70.0460   68.3780 C   0  0  0  0  0  0  0  0  0  0  0  0
    4.4940   70.4480   69.3470 C   0  0  0  0  0  0  0  0  0  0  0  0
    5.8150   70.6660   68.9850 C   0  0  0  0  0  0  0  0  0  0  0  0
    6.2110   70.4740   67.6600 C   0  0  0  0  0  0  0  0  0  0  0  0
    1.3463   64.6780   69.3548 H   0  0  0  0  0  0  0  0  0  0  0  0
   -0.9812   64.4076   69.9126 H   0  0  0  0  0  0  0  0  0  0  0  0
   -0.8745   65.9425   70.8631 H   0  0  0  0  0  0  0  0  0  0  0  0
   -0.4756   65.6100   67.8360 H   0  0  0  0  0  0  0  0  0  0  0  0
   -1.8336   66.4599   68.6964 H   0  0  0  0  0  0  0  0  0  0  0  0
   -0.3210   68.1357   69.4390 H   0  0  0  0  0  0  0  0  0  0  0  0
    1.9655   66.8089   68.1150 H   0  0  0  0  0  0  0  0  0  0  0  0
    1.9503   68.3240   69.1285 H   0  0  0  0  0  0  0  0  0  0  0  0
    1.4312   67.0679   71.1285 H   0  0  0  0  0  0  0  0  0  0  0  0
    2.8478   66.2877   70.3230 H   0  0  0  0  0  0  0  0  0  0  0  0
    2.4807   64.2477   71.4662 H   0  0  0  0  0  0  0  0  0  0  0  0
    0.7855   64.4006   72.1612 H   0  0  0  0  0  0  0  0  0  0  0  0
    0.7277   62.1727   71.8368 H   0  0  0  0  0  0  0  0  0  0  0  0
    0.3310   62.6536   70.1484 H   0  0  0  0  0  0  0  0  0  0  0  0
    2.1535   60.9232   70.2764 H   0  0  0  0  0  0  0  0  0  0  0  0
    2.6787   62.4994   69.5071 H   0  0  0  0  0  0  0  0  0  0  0  0
    5.6787   62.4767   71.4181 H   0  0  0  0  0  0  0  0  0  0  0  0
    5.1191   61.4617   70.0459 H   0  0  0  0  0  0  0  0  0  0  0  0
    4.7967   63.2288   70.0459 H   0  0  0  0  0  0  0  0  0  0  0  0
    3.3428   62.9118   71.9751 H   0  0  0  0  0  0  0  0  0  0  0  0
    4.7524   60.5227   72.3460 H   0  0  0  0  0  0  0  0  0  0  0  0
    1.8086   59.9552   71.8221 H   0  0  0  0  0  0  0  0  0  0  0  0
    3.2335   59.3785   70.8529 H   0  0  0  0  0  0  0  0  0  0  0  0
    2.0658   57.8669   72.7325 H   0  0  0  0  0  0  0  0  0  0  0  0
    3.8629   57.8508   72.3847 H   0  0  0  0  0  0  0  0  0  0  0  0
    2.9050   57.9866   74.8663 H   0  0  0  0  0  0  0  0  0  0  0  0
    4.4086   58.8425   74.3353 H   0  0  0  0  0  0  0  0  0  0  0  0
    1.6190   60.0596   74.4629 H   0  0  0  0  0  0  0  0  0  0  0  0
    2.9528   60.2996   75.6660 H   0  0  0  0  0  0  0  0  0  0  0  0
    2.5033   62.0346   73.6900 H   0  0  0  0  0  0  0  0  0  0  0  0
    4.1825   61.6019   74.2843 H   0  0  0  0  0  0  0  0  0  0  0  0
   -1.0740   67.7492   66.8158 H   0  0  0  0  0  0  0  0  0  0  0  0
   -0.4182   69.3009   67.5389 H   0  0  0  0  0  0  0  0  0  0  0  0
    1.7002   67.4490   66.6996 H   0  0  0  0  0  0  0  0  0  0  0  0
    0.6092   67.9710   65.3411 H   0  0  0  0  0  0  0  0  0  0  0  0
    1.1788   70.3950   66.4039 H   0  0  0  0  0  0  0  0  0  0  0  0
    2.0383   67.7848   64.1144 H   0  0  0  0  0  0  0  0  0  0  0  0
    2.1665   69.3500   63.1772 H   0  0  0  0  0  0  0  0  0  0  0  0
    3.9265   66.8831   62.9383 H   0  0  0  0  0  0  0  0  0  0  0  0
    2.8295   67.6002   61.7033 H   0  0  0  0  0  0  0  0  0  0  0  0
    5.1621   68.2219   61.2337 H   0  0  0  0  0  0  0  0  0  0  0  0
    4.2103   69.6718   61.7115 H   0  0  0  0  0  0  0  0  0  0  0  0
    6.1963   68.0716   63.3748 H   0  0  0  0  0  0  0  0  0  0  0  0
    6.2330   69.8357   62.8965 H   0  0  0  0  0  0  0  0  0  0  0  0
    2.5287   69.8754   68.6644 H   0  0  0  0  0  0  0  0  0  0  0  0
    4.1732   70.5911   70.3894 H   0  0  0  0  0  0  0  0  0  0  0  0
    6.5479   70.9890   69.7390 H   0  0  0  0  0  0  0  0  0  0  0  0
    7.2608   70.6520   67.3837 H   0  0  0  0  0  0  0  0  0  0  0  0
  2  1  1  0
  3  2  1  0
  4  3  1  0
  5  4  1  0
  6  1  1  0
  6  5  1  0
  7  1  1  0
  8  7  1  0
  9  8  1  0
 11 10  1  0
 11  9  1  0
 12 11  1  0
 13 12  1  0
 14 13  1  0
 15 14  1  0
 16 15  1  0
 17 16  1  0
 17 12  1  0
 18  4  1  0
 19 18  1  0
 20 19  1  0
 21 20  1  0
 22 21  1  0
 23 22  1  0
 24 23  1  0
 25 24  1  0
 26 25  1  0
 27 22  2  0
 27 26  1  0
 28 27  1  0
 29 28  2  0
 30 29  1  0
 30 21  2  0
 31 30  1  0
 32 31  2  0
 33 32  1  0
 34 33  2  0
 34 29  1  0
  1 35  1  0
  2 36  1  0
  2 37  1  0
  3 38  1  0
  3 39  1  0
  4 40  1  0
  5 41  1  0
  5 42  1  0
  6 43  1  0
  6 44  1  0
  7 45  1  0
  7 46  1  0
  8 47  1  0
  8 48  1  0
  9 49  1  0
  9 50  1  0
 10 51  1  0
 10 52  1  0
 10 53  1  0
 11 54  1  1
 12 55  1  0
 13 56  1  0
 13 57  1  0
 14 58  1  0
 14 59  1  0
 15 60  1  0
 15 61  1  0
 16 62  1  0
 16 63  1  0
 17 64  1  0
 17 65  1  0
 18 66  1  0
 18 67  1  0
 19 68  1  0
 19 69  1  0
 20 70  1  0
 23 71  1  0
 23 72  1  0
 24 73  1  0
 24 74  1  0
 25 75  1  0
 25 76  1  0
 26 77  1  0
 26 78  1  0
 31 79  1  0
 32 80  1  0
 33 81  1  0
 34 82  1  0
M  CHG  3   1   1   4   1  11   1
M  END
>  <score>  (9) 
-9.372

$$$$
