=
     RDKit          3D

 35 37  0  0  0  0  0  0  0  0999 V2000
    2.8350   61.9020   72.1750 C   0  0  2  0  0  0  0  0  0  0  0  0
    2.5790   63.2450   71.4260 C   0  0  0  0  0  0  0  0  0  0  0  0
    3.4170   63.3370   70.1380 C   0  0  1  0  0  0  0  0  0  0  0  0
    4.9070   63.2500   70.4930 C   0  0  0  0  0  0  0  0  0  0  0  0
    5.1980   61.9170   71.1950 C   0  0  1  0  0  0  0  0  0  0  0  0
    4.3600   61.8250   72.4820 C   0  0  0  0  0  0  0  0  0  0  0  0
    4.8190   60.7550   70.2640 C   0  0  0  0  0  0  0  0  0  0  0  0
    3.3260   60.8320   69.9110 C   0  0  1  0  0  0  0  0  0  0  0  0
    2.4880   60.7420   71.2010 C   0  0  0  0  0  0  0  0  0  0  0  0
    3.0420   62.1700   69.2110 C   0  0  0  0  0  0  0  0  0  0  0  0
    1.4900   63.1960   74.0070 C   0  0  0  0  0  0  0  0  0  0  0  0
    2.0230   61.8540   73.5070 C   0  0  2  0  0  0  0  0  0  0  0  0
    2.8420   61.2780   74.6180 N   0  0  0  0  0  4  0  0  0  0  0  0
    1.5125   63.3118   71.1649 H   0  0  0  0  0  0  0  0  0  0  0  0
    2.8705   64.0728   72.0891 H   0  0  0  0  0  0  0  0  0  0  0  0
    3.2176   64.2925   69.6308 H   0  0  0  0  0  0  0  0  0  0  0  0
    5.5060   63.3163   69.5728 H   0  0  0  0  0  0  0  0  0  0  0  0
    5.1685   64.0794   71.1665 H   0  0  0  0  0  0  0  0  0  0  0  0
    6.2682   61.8596   71.4426 H   0  0  0  0  0  0  0  0  0  0  0  0
    4.5764   60.8695   72.9822 H   0  0  0  0  0  0  0  0  0  0  0  0
    4.6258   62.6739   73.1291 H   0  0  0  0  0  0  0  0  0  0  0  0
    5.4153   60.8174   69.3418 H   0  0  0  0  0  0  0  0  0  0  0  0
    5.0213   59.8018   70.7745 H   0  0  0  0  0  0  0  0  0  0  0  0
    3.0602   59.9993   69.2431 H   0  0  0  0  0  0  0  0  0  0  0  0
    1.4207   60.7983   70.9408 H   0  0  0  0  0  0  0  0  0  0  0  0
    2.7144   59.7877   71.6991 H   0  0  0  0  0  0  0  0  0  0  0  0
    3.6372   62.2320   68.2880 H   0  0  0  0  0  0  0  0  0  0  0  0
    1.9708   62.2309   68.9684 H   0  0  0  0  0  0  0  0  0  0  0  0
    1.4874   63.2026   75.1070 H   0  0  0  0  0  0  0  0  0  0  0  0
    2.1342   64.0072   73.6370 H   0  0  0  0  0  0  0  0  0  0  0  0
    0.4648   63.3442   73.6370 H   0  0  0  0  0  0  0  0  0  0  0  0
    1.1591   61.2247   73.2468 H   0  0  0  0  0  0  0  0  0  0  0  0
    2.4400   61.5608   75.5232 H   0  0  0  0  0  0  0  0  0  0  0  0
    2.8412   60.2504   74.5480 H   0  0  0  0  0  0  0  0  0  0  0  0
    3.8088   61.6262   74.5480 H   0  0  0  0  0  0  0  0  0  0  0  0
  1  2  1  6
  3  2  1  0
  4  3  1  0
  5  4  1  0
  6  5  1  0
  6  1  1  0
  7  5  1  0
  8  7  1  0
  9  8  1  0
  9  1  1  0
 10  8  1  0
 10  3  1  0
 12 11  1  0
 12  1  1  0
 13 12  1  0
  2 14  1  0
  2 15  1  0
  3 16  1  6
  4 17  1  0
  4 18  1  0
  5 19  1  1
  6 20  1  0
  6 21  1  0
  7 22  1  0
  7 23  1  0
  8 24  1  6
  9 25  1  0
  9 26  1  0
 10 27  1  0
 10 28  1  0
 11 29  1  0
 11 30  1  0
 11 31  1  0
 12 32  1  6
 13 33  1  0
 13 34  1  0
 13 35  1  0
M  CHG  1  13   1
M  END
>  <score>  (1) 
-6.942

$$$$
=
     RDKit          3D

 35 37  0  0  0  0  0  0  0  0999 V2000
    2.8100   61.9510   72.1980 C   0  0  2  0  0  0  0  0  0  0  0  0
    2.4250   60.7760   71.2470 C   0  0  0  0  0  0  0  0  0  0  0  0
    3.2310   60.8290   69.9370 C   0  0  1  0  0  0  0  0  0  0  0  0
    2.9470   62.1550   69.2180 C   0  0  0  0  0  0  0  0  0  0  0  0
    3.3570   63.3310   70.1150 C   0  0  1  0  0  0  0  0  0  0  0  0
    2.5520   63.2780   71.4240 C   0  0  0  0  0  0  0  0  0  0  0  0
    4.8550   63.2280   70.4400 C   0  0  0  0  0  0  0  0  0  0  0  0
    5.1440   61.9060   71.1670 C   0  0  1  0  0  0  0  0  0  0  0  0
    4.3350   61.8540   72.4780 C   0  0  0  0  0  0  0  0  0  0  0  0
    4.7290   60.7330   70.2650 C   0  0  0  0  0  0  0  0  0  0  0  0
    1.3690   63.2590   73.9460 C   0  0  0  0  0  0  0  0  0  0  0  0
    1.9400   61.9150   73.4930 C   0  0  2  0  0  0  0  0  0  0  0  0
    2.7150   61.3670   74.6490 N   0  0  0  0  0  4  0  0  0  0  0  0
    2.6297   59.8221   71.7552 H   0  0  0  0  0  0  0  0  0  0  0  0
    1.3566   60.8648   71.0008 H   0  0  0  0  0  0  0  0  0  0  0  0
    2.9403   59.9914   69.2859 H   0  0  0  0  0  0  0  0  0  0  0  0
    3.5219   62.1927   68.2809 H   0  0  0  0  0  0  0  0  0  0  0  0
    1.8718   62.2249   68.9963 H   0  0  0  0  0  0  0  0  0  0  0  0
    3.1557   64.2780   69.5929 H   0  0  0  0  0  0  0  0  0  0  0  0
    2.8467   64.1260   72.0597 H   0  0  0  0  0  0  0  0  0  0  0  0
    1.4820   63.3300   71.1742 H   0  0  0  0  0  0  0  0  0  0  0  0
    5.4340   63.2642   69.5054 H   0  0  0  0  0  0  0  0  0  0  0  0
    5.1427   64.0681   71.0892 H   0  0  0  0  0  0  0  0  0  0  0  0
    6.2177   61.8365   71.3960 H   0  0  0  0  0  0  0  0  0  0  0  0
    4.5461   60.9053   72.9931 H   0  0  0  0  0  0  0  0  0  0  0  0
    4.6303   62.7082   73.1050 H   0  0  0  0  0  0  0  0  0  0  0  0
    5.3096   60.7679   69.3314 H   0  0  0  0  0  0  0  0  0  0  0  0
    4.9245   59.7862   70.7898 H   0  0  0  0  0  0  0  0  0  0  0  0
    1.3522   63.2985   75.0452 H   0  0  0  0  0  0  0  0  0  0  0  0
    1.9986   64.0739   73.5594 H   0  0  0  0  0  0  0  0  0  0  0  0
    0.3453   63.3715   73.5594 H   0  0  0  0  0  0  0  0  0  0  0  0
    1.0959   61.2710   73.2053 H   0  0  0  0  0  0  0  0  0  0  0  0
    2.2801   61.6745   75.5306 H   0  0  0  0  0  0  0  0  0  0  0  0
    2.7138   60.3379   74.6062 H   0  0  0  0  0  0  0  0  0  0  0  0
    3.6848   61.7112   74.6062 H   0  0  0  0  0  0  0  0  0  0  0  0
  1  2  1  6
  3  2  1  0
  4  3  1  0
  5  4  1  0
  6  5  1  0
  6  1  1  0
  7  5  1  0
  8  7  1  0
  9  8  1  0
  9  1  1  0
 10  8  1  0
 10  3  1  0
 12 11  1  0
 12  1  1  0
 13 12  1  0
  2 14  1  0
  2 15  1  0
  3 16  1  6
  4 17  1  0
  4 18  1  0
  5 19  1  6
  6 20  1  0
  6 21  1  0
  7 22  1  0
  7 23  1  0
  8 24  1  1
  9 25  1  0
  9 26  1  0
 10 27  1  0
 10 28  1  0
 11 29  1  0
 11 30  1  0
 11 31  1  0
 12 32  1  6
 13 33  1  0
 13 34  1  0
 13 35  1  0
M  CHG  1  13   1
M  END
>  <score>  (2) 
-6.924

$$$$
=
     RDKit          3D

 35 37  0  0  0  0  0  0  0  0999 V2000
    2.8840   61.9540   72.1400 C   0  0  2  0  0  0  0  0  0  0  0  0
    4.4190   61.8880   72.4060 C   0  0  0  0  0  0  0  0  0  0  0  0
    5.2190   61.9800   71.0940 C   0  0  1  0  0  0  0  0  0  0  0  0
    4.8300   60.8100   70.1800 C   0  0  0  0  0  0  0  0  0  0  0  0
    3.3290   60.8730   69.8650 C   0  0  1  0  0  0  0  0  0  0  0  0
    2.5300   60.7820   71.1760 C   0  0  0  0  0  0  0  0  0  0  0  0
    3.0060   62.2040   69.1700 C   0  0  0  0  0  0  0  0  0  0  0  0
    3.3870   63.3780   70.0850 C   0  0  1  0  0  0  0  0  0  0  0  0
    2.5860   63.2860   71.3980 C   0  0  0  0  0  0  0  0  0  0  0  0
    4.8900   63.3080   70.3970 C   0  0  0  0  0  0  0  0  0  0  0  0
    1.5310   63.0920   74.0680 C   0  0  0  0  0  0  0  0  0  0  0  0
    2.0890   61.7990   73.4750 C   0  0  2  0  0  0  0  0  0  0  0  0
    2.9350   61.1710   74.5370 N   0  0  0  0  0  4  0  0  0  0  0  0
    4.7056   62.7249   73.0598 H   0  0  0  0  0  0  0  0  0  0  0  0
    4.6471   60.9242   72.8846 H   0  0  0  0  0  0  0  0  0  0  0  0
    6.2967   61.9333   71.3092 H   0  0  0  0  0  0  0  0  0  0  0  0
    5.4027   60.8726   69.2429 H   0  0  0  0  0  0  0  0  0  0  0  0
    5.0547   59.8612   70.6891 H   0  0  0  0  0  0  0  0  0  0  0  0
    3.0582   60.0362   69.2043 H   0  0  0  0  0  0  0  0  0  0  0  0
    1.4555   60.8217   70.9438 H   0  0  0  0  0  0  0  0  0  0  0  0
    2.7872   59.8351   71.6732 H   0  0  0  0  0  0  0  0  0  0  0  0
    3.5759   62.2731   68.2317 H   0  0  0  0  0  0  0  0  0  0  0  0
    1.9282   62.2478   68.9547 H   0  0  0  0  0  0  0  0  0  0  0  0
    3.1570   64.3289   69.5822 H   0  0  0  0  0  0  0  0  0  0  0  0
    2.8625   64.1294   72.0478 H   0  0  0  0  0  0  0  0  0  0  0  0
    1.5132   63.3205   71.1571 H   0  0  0  0  0  0  0  0  0  0  0  0
    5.4606   63.3786   69.4592 H   0  0  0  0  0  0  0  0  0  0  0  0
    5.1607   64.1419   71.0614 H   0  0  0  0  0  0  0  0  0  0  0  0
    1.5566   63.0327   75.1661 H   0  0  0  0  0  0  0  0  0  0  0  0
    2.1420   63.9429   73.7324 H   0  0  0  0  0  0  0  0  0  0  0  0
    0.4927   63.2312   73.7324 H   0  0  0  0  0  0  0  0  0  0  0  0
    1.2369   61.1676   73.1831 H   0  0  0  0  0  0  0  0  0  0  0  0
    2.5756   61.4378   75.4647 H   0  0  0  0  0  0  0  0  0  0  0  0
    2.9047   60.1461   74.4388 H   0  0  0  0  0  0  0  0  0  0  0  0
    3.9072   61.4967   74.4388 H   0  0  0  0  0  0  0  0  0  0  0  0
  1  2  1  1
  3  2  1  0
  4  3  1  0
  5  4  1  0
  6  5  1  0
  6  1  1  0
  7  5  1  0
  8  7  1  0
  9  8  1  0
  9  1  1  0
 10  8  1  0
 10  3  1  0
 12 11  1  0
 12  1  1  0
 13 12  1  0
  2 14  1  0
  2 15  1  0
  3 16  1  1
  4 17  1  0
  4 18  1  0
  5 19  1  6
  6 20  1  0
  6 21  1  0
  7 22  1  0
  7 23  1  0
  8 24  1  6
  9 25  1  0
  9 26  1  0
 10 27  1  0
 10 28  1  0
 11 29  1  0
 11 30  1  0
 11 31  1  0
 12 32  1  6
 13 33  1  0
 13 34  1  0
 13 35  1  0
M  CHG  1  13   1
M  END
>  <score>  (3) 
-6.896

$$$$
=
     RDKit          3D

 35 37  0  0  0  0  0  0  0  0999 V2000
    2.6160   68.1790   64.5640 C   0  0  2  0  0  0  0  0  0  0  0  0
    3.7190   69.1680   65.0490 C   0  0  0  0  0  0  0  0  0  0  0  0
    4.9980   69.0410   64.2030 C   0  0  1  0  0  0  0  0  0  0  0  0
    5.5400   67.6090   64.3140 C   0  0  0  0  0  0  0  0  0  0  0  0
    4.4900   66.6140   63.8020 C   0  0  1  0  0  0  0  0  0  0  0  0
    3.2120   66.7420   64.6480 C   0  0  0  0  0  0  0  0  0  0  0  0
    4.1570   66.9290   62.3360 C   0  0  0  0  0  0  0  0  0  0  0  0
    3.6070   68.3590   62.2200 C   0  0  1  0  0  0  0  0  0  0  0  0
    2.3270   68.4860   63.0690 C   0  0  0  0  0  0  0  0  0  0  0  0
    4.6620   69.3500   62.7360 C   0  0  0  0  0  0  0  0  0  0  0  0
    1.5670   68.9210   66.8430 C   0  0  0  0  0  0  0  0  0  0  0  0
    1.3500   68.2810   65.4720 C   0  0  2  0  0  0  0  0  0  0  0  0
    0.7530   66.9320   65.7190 N   0  0  0  0  0  4  0  0  0  0  0  0
    3.3376   70.1967   64.9691 H   0  0  0  0  0  0  0  0  0  0  0  0
    3.9683   68.9242   66.0923 H   0  0  0  0  0  0  0  0  0  0  0  0
    5.7578   69.7488   64.5658 H   0  0  0  0  0  0  0  0  0  0  0  0
    6.4549   67.5171   63.7103 H   0  0  0  0  0  0  0  0  0  0  0  0
    5.7668   67.3874   65.3673 H   0  0  0  0  0  0  0  0  0  0  0  0
    4.8870   65.5910   63.8792 H   0  0  0  0  0  0  0  0  0  0  0  0
    2.4655   66.0229   64.2797 H   0  0  0  0  0  0  0  0  0  0  0  0
    3.4693   66.5348   65.6972 H   0  0  0  0  0  0  0  0  0  0  0  0
    5.0688   66.8385   61.7273 H   0  0  0  0  0  0  0  0  0  0  0  0
    3.3978   66.2188   61.9765 H   0  0  0  0  0  0  0  0  0  0  0  0
    3.3731   68.5813   61.1684 H   0  0  0  0  0  0  0  0  0  0  0  0
    1.9377   69.5111   62.9813 H   0  0  0  0  0  0  0  0  0  0  0  0
    1.5884   67.7595   62.6992 H   0  0  0  0  0  0  0  0  0  0  0  0
    5.5737   69.2619   62.1269 H   0  0  0  0  0  0  0  0  0  0  0  0
    4.2634   70.3727   62.6639 H   0  0  0  0  0  0  0  0  0  0  0  0
    1.3204   68.1936   67.6304 H   0  0  0  0  0  0  0  0  0  0  0  0
    2.6190   69.2266   66.9426 H   0  0  0  0  0  0  0  0  0  0  0  0
    0.9178   69.8034   66.9426 H   0  0  0  0  0  0  0  0  0  0  0  0
    0.6848   68.9400   64.8947 H   0  0  0  0  0  0  0  0  0  0  0  0
    0.6809   66.7690   66.7335 H   0  0  0  0  0  0  0  0  0  0  0  0
   -0.1855   66.8894   65.2968 H   0  0  0  0  0  0  0  0  0  0  0  0
    1.3526   66.2087   65.2968 H   0  0  0  0  0  0  0  0  0  0  0  0
  1  2  1  1
  3  2  1  0
  4  3  1  0
  5  4  1  0
  6  5  1  0
  6  1  1  0
  7  5  1  0
  8  7  1  0
  9  8  1  0
  9  1  1  0
 10  8  1  0
 10  3  1  0
 12 11  1  0
 12  1  1  0
 13 12  1  0
  2 14  1  0
  2 15  1  0
  3 16  1  1
  4 17  1  0
  4 18  1  0
  5 19  1  6
  6 20  1  0
  6 21  1  0
  7 22  1  0
  7 23  1  0
  8 24  1  6
  9 25  1  0
  9 26  1  0
 10 27  1  0
 10 28  1  0
 11 29  1  0
 11 30  1  0
 11 31  1  0
 12 32  1  6
 13 33  1  0
 13 34  1  0
 13 35  1  0
M  CHG  1  13   1
M  END
>  <score>  (4) 
-6.636

$$$$
=
     RDKit          3D

 35 37  0  0  0  0  0  0  0  0999 V2000
    2.6700   68.2000   64.5980 C   0  0  2  0  0  0  0  0  0  0  0  0
    3.2540   66.7550   64.6570 C   0  0  0  0  0  0  0  0  0  0  0  0
    4.5240   66.6290   63.7970 C   0  0  1  0  0  0  0  0  0  0  0  0
    4.1850   66.9620   62.3370 C   0  0  0  0  0  0  0  0  0  0  0  0
    3.6470   68.3960   62.2420 C   0  0  1  0  0  0  0  0  0  0  0  0
    2.3780   68.5220   63.1020 C   0  0  0  0  0  0  0  0  0  0  0  0
    4.7080   69.3770   62.7640 C   0  0  0  0  0  0  0  0  0  0  0  0
    5.0460   69.0530   64.2280 C   0  0  1  0  0  0  0  0  0  0  0  0
    3.7740   69.1790   65.0870 C   0  0  0  0  0  0  0  0  0  0  0  0
    5.5820   67.6160   64.3160 C   0  0  0  0  0  0  0  0  0  0  0  0
    1.4830   68.9120   66.8180 C   0  0  0  0  0  0  0  0  0  0  0  0
    1.3510   68.2920   65.4270 C   0  0  2  0  0  0  0  0  0  0  0  0
    0.7370   66.9410   65.6170 N   0  0  0  0  0  4  0  0  0  0  0  0
    3.5024   66.5114   65.7005 H   0  0  0  0  0  0  0  0  0  0  0  0
    2.4983   66.0591   64.2638 H   0  0  0  0  0  0  0  0  0  0  0  0
    4.9144   65.6023   63.8564 H   0  0  0  0  0  0  0  0  0  0  0  0
    5.0922   66.8709   61.7216 H   0  0  0  0  0  0  0  0  0  0  0  0
    3.4184   66.2618   61.9735 H   0  0  0  0  0  0  0  0  0  0  0  0
    3.4111   68.6296   61.1933 H   0  0  0  0  0  0  0  0  0  0  0  0
    1.9947   69.5502   63.0256 H   0  0  0  0  0  0  0  0  0  0  0  0
    1.6358   67.7997   62.7312 H   0  0  0  0  0  0  0  0  0  0  0  0
    5.6178   69.2898   62.1519 H   0  0  0  0  0  0  0  0  0  0  0  0
    4.3145   70.4023   62.7019 H   0  0  0  0  0  0  0  0  0  0  0  0
    5.8078   69.7556   64.5968 H   0  0  0  0  0  0  0  0  0  0  0  0
    4.0224   68.9469   66.1332 H   0  0  0  0  0  0  0  0  0  0  0  0
    3.3933   70.2073   64.9993 H   0  0  0  0  0  0  0  0  0  0  0  0
    6.4927   67.5286   63.7053 H   0  0  0  0  0  0  0  0  0  0  0  0
    5.8131   67.3798   65.3652 H   0  0  0  0  0  0  0  0  0  0  0  0
    1.3181   68.1377   67.5817 H   0  0  0  0  0  0  0  0  0  0  0  0
    2.4914   69.3352   66.9366 H   0  0  0  0  0  0  0  0  0  0  0  0
    0.7345   69.7093   66.9366 H   0  0  0  0  0  0  0  0  0  0  0  0
    0.7244   68.9610   64.8189 H   0  0  0  0  0  0  0  0  0  0  0  0
    0.6471   66.7432   66.6238 H   0  0  0  0  0  0  0  0  0  0  0  0
   -0.1950   66.9228   65.1790 H   0  0  0  0  0  0  0  0  0  0  0  0
    1.3362   66.2269   65.1790 H   0  0  0  0  0  0  0  0  0  0  0  0
  1  2  1  6
  3  2  1  0
  4  3  1  0
  5  4  1  0
  6  5  1  0
  6  1  1  0
  7  5  1  0
  8  7  1  0
  9  8  1  0
  9  1  1  0
 10  8  1  0
 10  3  1  0
 12 11  1  0
 12  1  1  0
 13 12  1  0
  2 14  1  0
  2 15  1  0
  3 16  1  6
  4 17  1  0
  4 18  1  0
  5 19  1  6
  6 20  1  0
  6 21  1  0
  7 22  1  0
  7 23  1  0
  8 24  1  1
  9 25  1  0
  9 26  1  0
 10 27  1  0
 10 28  1  0
 11 29  1  0
 11 30  1  0
 11 31  1  0
 12 32  1  6
 13 33  1  0
 13 34  1  0
 13 35  1  0
M  CHG  1  13   1
M  END
>  <score>  (5) 
-6.595

$$$$
=
     RDKit          3D

 35 37  0  0  0  0  0  0  0  0999 V2000
    2.6630   68.1140   64.5730 C   0  0  2  0  0  0  0  0  0  0  0  0
    2.3790   68.4730   63.0830 C   0  0  0  0  0  0  0  0  0  0  0  0
    3.6620   68.4050   62.2360 C   0  0  1  0  0  0  0  0  0  0  0  0
    4.6920   69.3980   62.7910 C   0  0  0  0  0  0  0  0  0  0  0  0
    5.0240   69.0430   64.2470 C   0  0  1  0  0  0  0  0  0  0  0  0
    3.7420   69.1110   65.0930 C   0  0  0  0  0  0  0  0  0  0  0  0
    5.5930   67.6170   64.3100 C   0  0  0  0  0  0  0  0  0  0  0  0
    4.5630   66.6170   63.7610 C   0  0  1  0  0  0  0  0  0  0  0  0
    3.2790   66.6880   64.6090 C   0  0  0  0  0  0  0  0  0  0  0  0
    4.2340   66.9800   62.3050 C   0  0  0  0  0  0  0  0  0  0  0  0
    1.5400   68.8690   66.8120 C   0  0  0  0  0  0  0  0  0  0  0  0
    1.3630   68.2480   65.4270 C   0  0  2  0  0  0  0  0  0  0  0  0
    0.7130   66.9170   65.6340 N   0  0  0  0  0  4  0  0  0  0  0  0
    1.6439   67.7623   62.6772 H   0  0  0  0  0  0  0  0  0  0  0  0
    1.9906   69.5013   63.0421 H   0  0  0  0  0  0  0  0  0  0  0  0
    3.4332   68.6624   61.1913 H   0  0  0  0  0  0  0  0  0  0  0  0
    5.6089   69.3500   62.1852 H   0  0  0  0  0  0  0  0  0  0  0  0
    4.2744   70.4149   62.7511 H   0  0  0  0  0  0  0  0  0  0  0  0
    5.7660   69.7552   64.6370 H   0  0  0  0  0  0  0  0  0  0  0  0
    3.9877   68.8605   66.1356 H   0  0  0  0  0  0  0  0  0  0  0  0
    3.3342   70.1301   65.0216 H   0  0  0  0  0  0  0  0  0  0  0  0
    6.5107   67.5637   63.7059 H   0  0  0  0  0  0  0  0  0  0  0  0
    5.8206   67.3642   65.3561 H   0  0  0  0  0  0  0  0  0  0  0  0
    4.9753   65.5981   63.8048 H   0  0  0  0  0  0  0  0  0  0  0  0
    2.5462   65.9700   64.2122 H   0  0  0  0  0  0  0  0  0  0  0  0
    3.5344   66.4439   65.6507 H   0  0  0  0  0  0  0  0  0  0  0  0
    5.1509   66.9256   61.6997 H   0  0  0  0  0  0  0  0  0  0  0  0
    3.4879   66.2717   61.9155 H   0  0  0  0  0  0  0  0  0  0  0  0
    1.3248   68.1141   67.5826 H   0  0  0  0  0  0  0  0  0  0  0  0
    2.5750   69.2238   66.9252 H   0  0  0  0  0  0  0  0  0  0  0  0
    0.8475   69.7162   66.9252 H   0  0  0  0  0  0  0  0  0  0  0  0
    0.7447   68.9330   64.8282 H   0  0  0  0  0  0  0  0  0  0  0  0
    0.6228   66.7322   66.6433 H   0  0  0  0  0  0  0  0  0  0  0  0
   -0.2214   66.9201   65.2006 H   0  0  0  0  0  0  0  0  0  0  0  0
    1.2900   66.1820   65.2006 H   0  0  0  0  0  0  0  0  0  0  0  0
  1  2  1  6
  3  2  1  0
  4  3  1  0
  5  4  1  0
  6  5  1  0
  6  1  1  0
  7  5  1  0
  8  7  1  0
  9  8  1  0
  9  1  1  0
 10  8  1  0
 10  3  1  0
 12 11  1  0
 12  1  1  0
 13 12  1  0
  2 14  1  0
  2 15  1  0
  3 16  1  6
  4 17  1  0
  4 18  1  0
  5 19  1  1
  6 20  1  0
  6 21  1  0
  7 22  1  0
  7 23  1  0
  8 24  1  6
  9 25  1  0
  9 26  1  0
 10 27  1  0
 10 28  1  0
 11 29  1  0
 11 30  1  0
 11 31  1  0
 12 32  1  6
 13 33  1  0
 13 34  1  0
 13 35  1  0
M  CHG  1  13   1
M  END
>  <score>  (6) 
-6.581

$$$$
=
     RDKit          3D

 35 37  0  0  0  0  0  0  0  0999 V2000
    4.5950   68.7550   64.7440 C   0  0  2  0  0  0  0  0  0  0  0  0
    4.8720   67.2230   64.6520 C   0  0  0  0  0  0  0  0  0  0  0  0
    4.0230   66.5650   63.5500 C   0  0  1  0  0  0  0  0  0  0  0  0
    2.5350   66.7760   63.8620 C   0  0  0  0  0  0  0  0  0  0  0  0
    2.2220   68.2770   63.9160 C   0  0  1  0  0  0  0  0  0  0  0  0
    3.0710   68.9350   65.0170 C   0  0  0  0  0  0  0  0  0  0  0  0
    2.5650   68.9210   62.5640 C   0  0  0  0  0  0  0  0  0  0  0  0
    4.0550   68.7200   62.2500 C   0  0  1  0  0  0  0  0  0  0  0  0
    4.9050   69.3780   63.3540 C   0  0  0  0  0  0  0  0  0  0  0  0
    4.3620   67.2150   62.2000 C   0  0  0  0  0  0  0  0  0  0  0  0
    4.6100   69.8650   67.1130 C   0  0  0  0  0  0  0  0  0  0  0  0
    5.4200   69.3930   65.9060 C   0  0  2  0  0  0  0  0  0  0  0  0
    6.2020   70.5740   65.4260 N   0  0  0  0  0  4  0  0  0  0  0  0
    5.9369   67.0646   64.4262 H   0  0  0  0  0  0  0  0  0  0  0  0
    4.6053   66.7641   65.6155 H   0  0  0  0  0  0  0  0  0  0  0  0
    4.2379   65.4871   63.5057 H   0  0  0  0  0  0  0  0  0  0  0  0
    1.9268   66.3044   63.0761 H   0  0  0  0  0  0  0  0  0  0  0  0
    2.3005   66.3213   64.8358 H   0  0  0  0  0  0  0  0  0  0  0  0
    1.1533   68.4204   64.1337 H   0  0  0  0  0  0  0  0  0  0  0  0
    2.8385   70.0095   65.0541 H   0  0  0  0  0  0  0  0  0  0  0  0
    2.8313   68.4505   65.9750 H   0  0  0  0  0  0  0  0  0  0  0  0
    1.9597   68.4532   61.7736 H   0  0  0  0  0  0  0  0  0  0  0  0
    2.3479   69.9983   62.6115 H   0  0  0  0  0  0  0  0  0  0  0  0
    4.2938   69.1802   61.2799 H   0  0  0  0  0  0  0  0  0  0  0  0
    5.9704   69.2302   63.1234 H   0  0  0  0  0  0  0  0  0  0  0  0
    4.6626   70.4504   63.3895 H   0  0  0  0  0  0  0  0  0  0  0  0
    3.7591   66.7463   61.4083 H   0  0  0  0  0  0  0  0  0  0  0  0
    5.4318   67.0713   61.9884 H   0  0  0  0  0  0  0  0  0  0  0  0
    5.1233   69.5659   68.0387 H   0  0  0  0  0  0  0  0  0  0  0  0
    4.5140   70.9604   67.0845 H   0  0  0  0  0  0  0  0  0  0  0  0
    3.6096   69.4084   67.0845 H   0  0  0  0  0  0  0  0  0  0  0  0
    6.0632   68.5643   66.2368 H   0  0  0  0  0  0  0  0  0  0  0  0
    6.5536   71.1050   66.2355 H   0  0  0  0  0  0  0  0  0  0  0  0
    6.9967   70.2509   64.8559 H   0  0  0  0  0  0  0  0  0  0  0  0
    5.5943   71.1795   64.8559 H   0  0  0  0  0  0  0  0  0  0  0  0
  1  2  1  6
  3  2  1  0
  4  3  1  0
  5  4  1  0
  6  5  1  0
  6  1  1  0
  7  5  1  0
  8  7  1  0
  9  8  1  0
  9  1  1  0
 10  8  1  0
 10  3  1  0
 12 11  1  0
 12  1  1  0
 13 12  1  0
  2 14  1  0
  2 15  1  0
  3 16  1  6
  4 17  1  0
  4 18  1  0
  5 19  1  1
  6 20  1  0
  6 21  1  0
  7 22  1  0
  7 23  1  0
  8 24  1  6
  9 25  1  0
  9 26  1  0
 10 27  1  0
 10 28  1  0
 11 29  1  0
 11 30  1  0
 11 31  1  0
 12 32  1  1
 13 33  1  0
 13 34  1  0
 13 35  1  0
M  CHG  1  13   1
M  END
>  <score>  (7) 
-6.403

$$$$
=
     RDKit          3D

 35 37  0  0  0  0  0  0  0  0999 V2000
    4.5950   68.6800   64.7630 C   0  0  2  0  0  0  0  0  0  0  0  0
    3.0790   68.8630   65.0770 C   0  0  0  0  0  0  0  0  0  0  0  0
    2.2000   68.2420   63.9770 C   0  0  1  0  0  0  0  0  0  0  0  0
    2.5080   68.9210   62.6360 C   0  0  0  0  0  0  0  0  0  0  0  0
    3.9870   68.7200   62.2790 C   0  0  1  0  0  0  0  0  0  0  0  0
    4.8650   69.3410   63.3780 C   0  0  0  0  0  0  0  0  0  0  0  0
    4.2910   67.2170   62.1800 C   0  0  0  0  0  0  0  0  0  0  0  0
    3.9910   66.5340   63.5230 C   0  0  1  0  0  0  0  0  0  0  0  0
    4.8710   67.1570   64.6240 C   0  0  0  0  0  0  0  0  0  0  0  0
    2.5100   66.7400   63.8750 C   0  0  0  0  0  0  0  0  0  0  0  0
    4.7150   69.8730   67.0880 C   0  0  0  0  0  0  0  0  0  0  0  0
    5.4690   69.3690   65.8580 C   0  0  2  0  0  0  0  0  0  0  0  0
    6.2080   70.5430   65.2990 N   0  0  0  0  0  4  0  0  0  0  0  0
    2.8505   68.3751   66.0360 H   0  0  0  0  0  0  0  0  0  0  0  0
    2.8628   69.9404   65.1265 H   0  0  0  0  0  0  0  0  0  0  0  0
    1.1375   68.3851   64.2232 H   0  0  0  0  0  0  0  0  0  0  0  0
    1.8791   68.4783   61.8496 H   0  0  0  0  0  0  0  0  0  0  0  0
    2.2971   69.9975   62.7171 H   0  0  0  0  0  0  0  0  0  0  0  0
    4.1999   69.2042   61.3145 H   0  0  0  0  0  0  0  0  0  0  0  0
    5.9232   69.1986   63.1137 H   0  0  0  0  0  0  0  0  0  0  0  0
    4.6216   70.4112   63.4519 H   0  0  0  0  0  0  0  0  0  0  0  0
    3.6643   66.7690   61.3948 H   0  0  0  0  0  0  0  0  0  0  0  0
    5.3536   67.0777   61.9319 H   0  0  0  0  0  0  0  0  0  0  0  0
    4.2075   65.4582   63.4470 H   0  0  0  0  0  0  0  0  0  0  0  0
    4.6519   66.6629   65.5821 H   0  0  0  0  0  0  0  0  0  0  0  0
    5.9270   67.0160   64.3500 H   0  0  0  0  0  0  0  0  0  0  0  0
    1.8829   66.2907   63.0909 H   0  0  0  0  0  0  0  0  0  0  0  0
    2.2976   66.2601   64.8418 H   0  0  0  0  0  0  0  0  0  0  0  0
    5.2281   69.5301   67.9986 H   0  0  0  0  0  0  0  0  0  0  0  0
    4.6862   70.9726   67.0754 H   0  0  0  0  0  0  0  0  0  0  0  0
    3.6880   69.4792   67.0754 H   0  0  0  0  0  0  0  0  0  0  0  0
    6.1403   68.5603   66.1825 H   0  0  0  0  0  0  0  0  0  0  0  0
    6.5710   71.1197   66.0714 H   0  0  0  0  0  0  0  0  0  0  0  0
    6.9927   70.2109   64.7203 H   0  0  0  0  0  0  0  0  0  0  0  0
    5.5692   71.1069   64.7203 H   0  0  0  0  0  0  0  0  0  0  0  0
  1  2  1  1
  3  2  1  0
  4  3  1  0
  5  4  1  0
  6  5  1  0
  6  1  1  0
  7  5  1  0
  8  7  1  0
  9  8  1  0
  9  1  1  0
 10  8  1  0
 10  3  1  0
 12 11  1  0
 12  1  1  0
 13 12  1  0
  2 14  1  0
  2 15  1  0
  3 16  1  1
  4 17  1  0
  4 18  1  0
  5 19  1  6
  6 20  1  0
  6 21  1  0
  7 22  1  0
  7 23  1  0
  8 24  1  6
  9 25  1  0
  9 26  1  0
 10 27  1  0
 10 28  1  0
 11 29  1  0
 11 30  1  0
 11 31  1  0
 12 32  1  1
 13 33  1  0
 13 34  1  0
 13 35  1  0
M  CHG  1  13   1
M  END
>  <score>  (8) 
-6.314

$$$$
=
     RDKit          3D

 35 37  0  0  0  0  0  0  0  0999 V2000
    3.5550   66.4910   64.2250 C   0  0  2  0  0  0  0  0  0  0  0  0
    4.9550   67.0970   64.5490 C   0  0  0  0  0  0  0  0  0  0  0  0
    4.8910   68.6310   64.6520 C   0  0  1  0  0  0  0  0  0  0  0  0
    4.4040   69.2100   63.3160 C   0  0  0  0  0  0  0  0  0  0  0  0
    3.0070   68.6630   62.9900 C   0  0  1  0  0  0  0  0  0  0  0  0
    3.0720   67.1300   62.8880 C   0  0  0  0  0  0  0  0  0  0  0  0
    2.0310   69.0530   64.1100 C   0  0  0  0  0  0  0  0  0  0  0  0
    2.5090   68.4700   65.4490 C   0  0  1  0  0  0  0  0  0  0  0  0
    2.5740   66.9340   65.3450 C   0  0  0  0  0  0  0  0  0  0  0  0
    3.9080   69.0190   65.7670 C   0  0  0  0  0  0  0  0  0  0  0  0
    3.8070   64.1490   65.3640 C   0  0  0  0  0  0  0  0  0  0  0  0
    3.6530   64.9410   64.0650 C   0  0  2  0  0  0  0  0  0  0  0  0
    4.8060   64.5600   63.1920 N   0  0  0  0  0  4  0  0  0  0  0  0
    5.3093   66.6882   65.5068 H   0  0  0  0  0  0  0  0  0  0  0  0
    5.6445   66.8326   63.7337 H   0  0  0  0  0  0  0  0  0  0  0  0
    5.8893   69.0314   64.8824 H   0  0  0  0  0  0  0  0  0  0  0  0
    4.3590   70.3067   63.3881 H   0  0  0  0  0  0  0  0  0  0  0  0
    5.1030   68.9192   62.5180 H   0  0  0  0  0  0  0  0  0  0  0  0
    2.6613   69.0850   62.0348 H   0  0  0  0  0  0  0  0  0  0  0  0
    2.0700   66.7445   62.6485 H   0  0  0  0  0  0  0  0  0  0  0  0
    3.7909   66.8658   62.0985 H   0  0  0  0  0  0  0  0  0  0  0  0
    1.9830   70.1493   64.1862 H   0  0  0  0  0  0  0  0  0  0  0  0
    1.0338   68.6517   63.8764 H   0  0  0  0  0  0  0  0  0  0  0  0
    1.8083   68.7539   66.2480 H   0  0  0  0  0  0  0  0  0  0  0  0
    2.9165   66.5229   66.3061 H   0  0  0  0  0  0  0  0  0  0  0  0
    1.5701   66.5574   65.0996 H   0  0  0  0  0  0  0  0  0  0  0  0
    3.8600   70.1152   65.8451 H   0  0  0  0  0  0  0  0  0  0  0  0
    4.2555   68.5919   66.7193 H   0  0  0  0  0  0  0  0  0  0  0  0
    3.6758   64.8239   66.2227 H   0  0  0  0  0  0  0  0  0  0  0  0
    3.0464   63.3553   65.4019 H   0  0  0  0  0  0  0  0  0  0  0  0
    4.8096   63.6981   65.4019 H   0  0  0  0  0  0  0  0  0  0  0  0
    2.6812   64.6766   63.6226 H   0  0  0  0  0  0  0  0  0  0  0  0
    5.6089   64.2947   63.7801 H   0  0  0  0  0  0  0  0  0  0  0  0
    4.5377   63.7629   62.5973 H   0  0  0  0  0  0  0  0  0  0  0  0
    5.0654   65.3600   62.5973 H   0  0  0  0  0  0  0  0  0  0  0  0
  1  2  1  1
  3  2  1  0
  4  3  1  0
  5  4  1  0
  6  5  1  0
  6  1  1  0
  7  5  1  0
  8  7  1  0
  9  8  1  0
  9  1  1  0
 10  8  1  0
 10  3  1  0
 12 11  1  0
 12  1  1  0
 13 12  1  0
  2 14  1  0
  2 15  1  0
  3 16  1  1
  4 17  1  0
  4 18  1  0
  5 19  1  6
  6 20  1  0
  6 21  1  0
  7 22  1  0
  7 23  1  0
  8 24  1  1
  9 25  1  0
  9 26  1  0
 10 27  1  0
 10 28  1  0
 11 29  1  0
 11 30  1  0
 11 31  1  0
 12 32  1  6
 13 33  1  0
 13 34  1  0
 13 35  1  0
M  CHG  1  13   1
M  END
>  <score>  (9) 
-6.295

$$$$
