=
     RDKit          3D

 32 33  0  0  0  0  0  0  0  0999 V2000
   -0.0110   68.1210   66.5660 S   0  0  0  0  0  6  0  0  0  0  0  0
   -0.7780   69.3360   66.7530 O   0  0  0  0  0  0  0  0  0  0  0  0
   -0.6510   66.8200   66.5860 O   0  0  0  0  0  0  0  0  0  0  0  0
    3.0040   68.7090   61.3280 C   0  0  0  0  0  0  0  0  0  0  0  0
    2.2460   68.5360   62.6120 C   0  0  0  0  0  0  0  0  0  0  0  0
    0.9430   69.0360   62.7370 C   0  0  0  0  0  0  0  0  0  0  0  0
    0.2460   68.9060   63.9400 C   0  0  0  0  0  0  0  0  0  0  0  0
    0.8590   68.2710   65.0230 C   0  0  0  0  0  0  0  0  0  0  0  0
    2.1680   67.7930   64.9230 C   0  0  0  0  0  0  0  0  0  0  0  0
    2.8580   67.9270   63.7170 C   0  0  0  0  0  0  0  0  0  0  0  0
    1.5310   68.0920   67.9640 S   0  0  0  0  0  0  0  0  0  0  0  0
    2.0130   69.8320   68.0000 C   0  0  0  0  0  0  0  0  0  0  0  0
    3.5020   70.0380   67.9230 C   0  0  0  0  0  0  0  0  0  0  0  0
    4.2090   69.7080   66.7560 C   0  0  0  0  0  0  0  0  0  0  0  0
    5.5890   69.9060   66.6830 C   0  0  0  0  0  0  0  0  0  0  0  0
    6.2760   70.4350   67.7730 C   0  0  0  0  0  0  0  0  0  0  0  0
    5.5850   70.7700   68.9360 C   0  0  0  0  0  0  0  0  0  0  0  0
    4.2060   70.5720   69.0120 C   0  0  0  0  0  0  0  0  0  0  0  0
    4.0540   68.9487   61.5515 H   0  0  0  0  0  0  0  0  0  0  0  0
    2.9566   67.7769   60.7458 H   0  0  0  0  0  0  0  0  0  0  0  0
    2.5569   69.5282   60.7458 H   0  0  0  0  0  0  0  0  0  0  0  0
    0.4654   69.5348   61.8808 H   0  0  0  0  0  0  0  0  0  0  0  0
   -0.7767   69.3001   64.0341 H   0  0  0  0  0  0  0  0  0  0  0  0
    2.6511   67.3148   65.7878 H   0  0  0  0  0  0  0  0  0  0  0  0
    3.8888   67.5523   63.6329 H   0  0  0  0  0  0  0  0  0  0  0  0
    1.5451   70.3419   67.1449 H   0  0  0  0  0  0  0  0  0  0  0  0
    1.6760   70.2440   68.9626 H   0  0  0  0  0  0  0  0  0  0  0  0
    3.6713   69.2901   65.8922 H   0  0  0  0  0  0  0  0  0  0  0  0
    6.1341   69.6441   65.7641 H   0  0  0  0  0  0  0  0  0  0  0  0
    7.3638   70.5883   67.7159 H   0  0  0  0  0  0  0  0  0  0  0  0
    6.1276   71.1911   69.7952 H   0  0  0  0  0  0  0  0  0  0  0  0
    3.6667   70.8369   69.9334 H   0  0  0  0  0  0  0  0  0  0  0  0
  2  1  2  0
  3  1  2  0
  5  4  1  0
  6  5  2  0
  7  6  1  0
  8  7  2  0
  8  1  1  0
  9  8  1  0
 10  9  2  0
 10  5  1  0
 11  1  1  0
 12 11  1  0
 13 12  1  0
 14 13  2  0
 15 14  1  0
 16 15  2  0
 17 16  1  0
 18 13  1  0
 18 17  2  0
  4 19  1  0
  4 20  1  0
  4 21  1  0
  6 22  1  0
  7 23  1  0
  9 24  1  0
 10 25  1  0
 12 26  1  0
 12 27  1  0
 14 28  1  0
 15 29  1  0
 16 30  1  0
 17 31  1  0
 18 32  1  0
M  END
>  <score>  (1) 
-9.369

$$$$
=
     RDKit          3D

 32 33  0  0  0  0  0  0  0  0999 V2000
    4.0570   66.8690   63.0770 S   0  0  0  0  0  6  0  0  0  0  0  0
    4.2160   65.4680   63.4100 O   0  0  0  0  0  0  0  0  0  0  0  0
    3.9840   67.3070   61.6960 O   0  0  0  0  0  0  0  0  0  0  0  0
   -0.9760   68.7890   65.8800 C   0  0  0  0  0  0  0  0  0  0  0  0
    0.2850   68.3400   65.1990 C   0  0  0  0  0  0  0  0  0  0  0  0
    0.6070   68.8170   63.9220 C   0  0  0  0  0  0  0  0  0  0  0  0
    1.7620   68.3770   63.2720 C   0  0  0  0  0  0  0  0  0  0  0  0
    2.5960   67.4530   63.9060 C   0  0  0  0  0  0  0  0  0  0  0  0
    2.2730   66.9460   65.1670 C   0  0  0  0  0  0  0  0  0  0  0  0
    1.1170   67.3910   65.8100 C   0  0  0  0  0  0  0  0  0  0  0  0
    5.5760   67.9450   64.0060 S   0  0  0  0  0  0  0  0  0  0  0  0
    4.6990   69.4410   64.5070 C   0  0  0  0  0  0  0  0  0  0  0  0
    4.9320   69.8120   65.9470 C   0  0  0  0  0  0  0  0  0  0  0  0
    6.2090   70.1920   66.3890 C   0  0  0  0  0  0  0  0  0  0  0  0
    6.4230   70.5430   67.7230 C   0  0  0  0  0  0  0  0  0  0  0  0
    5.3650   70.5200   68.6280 C   0  0  0  0  0  0  0  0  0  0  0  0
    4.0920   70.1480   68.2010 C   0  0  0  0  0  0  0  0  0  0  0  0
    3.8750   69.7950   66.8680 C   0  0  0  0  0  0  0  0  0  0  0  0
   -0.8408   68.7409   66.9706 H   0  0  0  0  0  0  0  0  0  0  0  0
   -1.2041   69.8236   65.5841 H   0  0  0  0  0  0  0  0  0  0  0  0
   -1.8067   68.1314   65.5841 H   0  0  0  0  0  0  0  0  0  0  0  0
   -0.0547   69.5434   63.4276 H   0  0  0  0  0  0  0  0  0  0  0  0
    2.0128   68.7546   62.2698 H   0  0  0  0  0  0  0  0  0  0  0  0
    2.9244   66.2022   65.6492 H   0  0  0  0  0  0  0  0  0  0  0  0
    0.8569   66.9947   66.8026 H   0  0  0  0  0  0  0  0  0  0  0  0
    5.0374   70.2734   63.8726 H   0  0  0  0  0  0  0  0  0  0  0  0
    3.6232   69.2431   64.3909 H   0  0  0  0  0  0  0  0  0  0  0  0
    7.0482   70.2134   65.6781 H   0  0  0  0  0  0  0  0  0  0  0  0
    7.4279   70.8379   68.0594 H   0  0  0  0  0  0  0  0  0  0  0  0
    5.5341   70.7954   69.6795 H   0  0  0  0  0  0  0  0  0  0  0  0
    3.2561   70.1324   68.9159 H   0  0  0  0  0  0  0  0  0  0  0  0
    2.8676   69.5014   66.5378 H   0  0  0  0  0  0  0  0  0  0  0  0
  2  1  2  0
  3  1  2  0
  5  4  1  0
  6  5  2  0
  7  6  1  0
  8  7  2  0
  8  1  1  0
  9  8  1  0
 10  9  2  0
 10  5  1  0
 11  1  1  0
 12 11  1  0
 13 12  1  0
 14 13  2  0
 15 14  1  0
 16 15  2  0
 17 16  1  0
 18 13  1  0
 18 17  2  0
  4 19  1  0
  4 20  1  0
  4 21  1  0
  6 22  1  0
  7 23  1  0
  9 24  1  0
 10 25  1  0
 12 26  1  0
 12 27  1  0
 14 28  1  0
 15 29  1  0
 16 30  1  0
 17 31  1  0
 18 32  1  0
M  END
>  <score>  (2) 
-9.035

$$$$
=
     RDKit          3D

 32 33  0  0  0  0  0  0  0  0999 V2000
    3.7780   68.1430   64.1940 S   0  0  0  0  0  6  0  0  0  0  0  0
    3.2630   69.1080   63.2440 O   0  0  0  0  0  0  0  0  0  0  0  0
    4.7380   67.1330   63.7910 O   0  0  0  0  0  0  0  0  0  0  0  0
    6.2330   71.1680   68.8520 C   0  0  0  0  0  0  0  0  0  0  0  0
    5.6160   70.4490   67.6870 C   0  0  0  0  0  0  0  0  0  0  0  0
    4.2670   70.0750   67.7210 C   0  0  0  0  0  0  0  0  0  0  0  0
    3.6980   69.3760   66.6530 C   0  0  0  0  0  0  0  0  0  0  0  0
    4.4870   69.0520   65.5480 C   0  0  0  0  0  0  0  0  0  0  0  0
    5.8410   69.3930   65.5110 C   0  0  0  0  0  0  0  0  0  0  0  0
    6.4020   70.0910   66.5820 C   0  0  0  0  0  0  0  0  0  0  0  0
    2.1690   67.1700   65.0850 S   0  0  0  0  0  0  0  0  0  0  0  0
    0.8950   68.4480   65.0140 C   0  0  0  0  0  0  0  0  0  0  0  0
   -0.3120   68.1310   65.8570 C   0  0  0  0  0  0  0  0  0  0  0  0
   -1.5600   68.7000   65.5580 C   0  0  0  0  0  0  0  0  0  0  0  0
   -2.6800   68.3990   66.3350 C   0  0  0  0  0  0  0  0  0  0  0  0
   -2.5660   67.5280   67.4150 C   0  0  0  0  0  0  0  0  0  0  0  0
   -1.3330   66.9540   67.7200 C   0  0  0  0  0  0  0  0  0  0  0  0
   -0.2110   67.2540   66.9460 C   0  0  0  0  0  0  0  0  0  0  0  0
    5.8597   70.7330   69.7908 H   0  0  0  0  0  0  0  0  0  0  0  0
    7.3272   71.0640   68.8093 H   0  0  0  0  0  0  0  0  0  0  0  0
    5.9641   72.2338   68.8093 H   0  0  0  0  0  0  0  0  0  0  0  0
    3.6507   70.3333   68.5947 H   0  0  0  0  0  0  0  0  0  0  0  0
    2.6380   69.0838   66.6828 H   0  0  0  0  0  0  0  0  0  0  0  0
    6.4599   69.1140   64.6455 H   0  0  0  0  0  0  0  0  0  0  0  0
    7.4678   70.3621   66.5590 H   0  0  0  0  0  0  0  0  0  0  0  0
    1.3295   69.3946   65.3678 H   0  0  0  0  0  0  0  0  0  0  0  0
    0.5559   68.5133   63.9696 H   0  0  0  0  0  0  0  0  0  0  0  0
   -1.6561   69.3881   64.7052 H   0  0  0  0  0  0  0  0  0  0  0  0
   -3.6536   68.8505   66.0937 H   0  0  0  0  0  0  0  0  0  0  0  0
   -3.4489   67.2928   68.0276 H   0  0  0  0  0  0  0  0  0  0  0  0
   -1.2441   66.2637   68.5718 H   0  0  0  0  0  0  0  0  0  0  0  0
    0.7597   66.7989   67.1923 H   0  0  0  0  0  0  0  0  0  0  0  0
  2  1  2  0
  3  1  2  0
  5  4  1  0
  6  5  2  0
  7  6  1  0
  8  7  2  0
  8  1  1  0
  9  8  1  0
 10  9  2  0
 10  5  1  0
 11  1  1  0
 12 11  1  0
 13 12  1  0
 14 13  2  0
 15 14  1  0
 16 15  2  0
 17 16  1  0
 18 13  1  0
 18 17  2  0
  4 19  1  0
  4 20  1  0
  4 21  1  0
  6 22  1  0
  7 23  1  0
  9 24  1  0
 10 25  1  0
 12 26  1  0
 12 27  1  0
 14 28  1  0
 15 29  1  0
 16 30  1  0
 17 31  1  0
 18 32  1  0
M  END
>  <score>  (3) 
-8.357

$$$$
=
     RDKit          3D

 32 33  0  0  0  0  0  0  0  0999 V2000
    3.6490   68.1480   63.9950 S   0  0  0  0  0  6  0  0  0  0  0  0
    2.8320   69.1200   63.2980 O   0  0  0  0  0  0  0  0  0  0  0  0
    4.7070   67.4290   63.3100 O   0  0  0  0  0  0  0  0  0  0  0  0
    6.0980   71.0280   68.7470 C   0  0  0  0  0  0  0  0  0  0  0  0
    5.4990   70.2870   67.5870 C   0  0  0  0  0  0  0  0  0  0  0  0
    6.3020   69.9000   66.5060 C   0  0  0  0  0  0  0  0  0  0  0  0
    5.7430   69.2400   65.4090 C   0  0  0  0  0  0  0  0  0  0  0  0
    4.3740   68.9670   65.3970 C   0  0  0  0  0  0  0  0  0  0  0  0
    3.5550   69.3720   66.4540 C   0  0  0  0  0  0  0  0  0  0  0  0
    4.1210   70.0320   67.5470 C   0  0  0  0  0  0  0  0  0  0  0  0
    2.3950   66.7430   64.8800 S   0  0  0  0  0  0  0  0  0  0  0  0
    0.9830   67.7680   65.3450 C   0  0  0  0  0  0  0  0  0  0  0  0
    0.3880   67.3910   66.6760 C   0  0  0  0  0  0  0  0  0  0  0  0
    1.2000   67.2820   67.8150 C   0  0  0  0  0  0  0  0  0  0  0  0
    0.6470   66.9400   69.0500 C   0  0  0  0  0  0  0  0  0  0  0  0
   -0.7210   66.7060   69.1600 C   0  0  0  0  0  0  0  0  0  0  0  0
   -1.5390   66.8140   68.0370 C   0  0  0  0  0  0  0  0  0  0  0  0
   -0.9880   67.1540   66.8000 C   0  0  0  0  0  0  0  0  0  0  0  0
    5.7405   70.5858   69.6886 H   0  0  0  0  0  0  0  0  0  0  0  0
    7.1947   70.9560   68.7012 H   0  0  0  0  0  0  0  0  0  0  0  0
    5.7977   72.0852   68.7012 H   0  0  0  0  0  0  0  0  0  0  0  0
    7.3802   70.1174   66.5212 H   0  0  0  0  0  0  0  0  0  0  0  0
    6.3762   68.9380   64.5618 H   0  0  0  0  0  0  0  0  0  0  0  0
    2.4736   69.1727   66.4256 H   0  0  0  0  0  0  0  0  0  0  0  0
    3.4813   70.3539   68.3820 H   0  0  0  0  0  0  0  0  0  0  0  0
    1.3131   68.8161   65.3941 H   0  0  0  0  0  0  0  0  0  0  0  0
    0.2037   67.6150   64.5839 H   0  0  0  0  0  0  0  0  0  0  0  0
    2.2812   67.4676   67.7340 H   0  0  0  0  0  0  0  0  0  0  0  0
    1.2923   66.8553   69.9368 H   0  0  0  0  0  0  0  0  0  0  0  0
   -1.1562   66.4358   70.1335 H   0  0  0  0  0  0  0  0  0  0  0  0
   -2.6201   66.6312   68.1252 H   0  0  0  0  0  0  0  0  0  0  0  0
   -1.6382   67.2365   65.9166 H   0  0  0  0  0  0  0  0  0  0  0  0
  2  1  2  0
  3  1  2  0
  5  4  1  0
  6  5  2  0
  7  6  1  0
  8  7  2  0
  8  1  1  0
  9  8  1  0
 10  9  2  0
 10  5  1  0
 11  1  1  0
 12 11  1  0
 13 12  1  0
 14 13  2  0
 15 14  1  0
 16 15  2  0
 17 16  1  0
 18 13  1  0
 18 17  2  0
  4 19  1  0
  4 20  1  0
  4 21  1  0
  6 22  1  0
  7 23  1  0
  9 24  1  0
 10 25  1  0
 12 26  1  0
 12 27  1  0
 14 28  1  0
 15 29  1  0
 16 30  1  0
 17 31  1  0
 18 32  1  0
M  END
>  <score>  (4) 
-7.97

$$$$
=
     RDKit          3D

 32 33  0  0  0  0  0  0  0  0999 V2000
    2.3220   59.1260   73.6370 S   0  0  0  0  0  6  0  0  0  0  0  0
    3.3840   59.2990   74.6070 O   0  0  0  0  0  0  0  0  0  0  0  0
    1.1920   58.2600   73.9100 O   0  0  0  0  0  0  0  0  0  0  0  0
    0.1840   64.6340   72.2350 C   0  0  0  0  0  0  0  0  0  0  0  0
    0.6950   63.2730   72.6100 C   0  0  0  0  0  0  0  0  0  0  0  0
    1.8520   63.1420   73.3890 C   0  0  0  0  0  0  0  0  0  0  0  0
    2.3490   61.8780   73.7120 C   0  0  0  0  0  0  0  0  0  0  0  0
    1.6830   60.7400   73.2510 C   0  0  0  0  0  0  0  0  0  0  0  0
    0.5450   60.8540   72.4490 C   0  0  0  0  0  0  0  0  0  0  0  0
    0.0540   62.1210   72.1310 C   0  0  0  0  0  0  0  0  0  0  0  0
    3.1670   58.5210   71.8350 S   0  0  0  0  0  0  0  0  0  0  0  0
    4.5510   59.6710   71.6850 C   0  0  0  0  0  0  0  0  0  0  0  0
    4.2160   60.9020   70.8860 C   0  0  0  0  0  0  0  0  0  0  0  0
    3.2000   60.8710   69.9190 C   0  0  0  0  0  0  0  0  0  0  0  0
    2.8850   62.0150   69.1830 C   0  0  0  0  0  0  0  0  0  0  0  0
    3.5800   63.2010   69.4070 C   0  0  0  0  0  0  0  0  0  0  0  0
    4.5900   63.2450   70.3670 C   0  0  0  0  0  0  0  0  0  0  0  0
    4.9070   62.1030   71.1030 C   0  0  0  0  0  0  0  0  0  0  0  0
   -0.0318   65.2089   73.1476 H   0  0  0  0  0  0  0  0  0  0  0  0
    0.9456   65.1608   71.6413 H   0  0  0  0  0  0  0  0  0  0  0  0
   -0.7361   64.5294   71.6413 H   0  0  0  0  0  0  0  0  0  0  0  0
    2.3727   64.0417   73.7488 H   0  0  0  0  0  0  0  0  0  0  0  0
    3.2574   61.7791   74.3244 H   0  0  0  0  0  0  0  0  0  0  0  0
    0.0401   59.9527   72.0713 H   0  0  0  0  0  0  0  0  0  0  0  0
   -0.8421   62.2169   71.5002 H   0  0  0  0  0  0  0  0  0  0  0  0
    4.8577   59.9823   72.6945 H   0  0  0  0  0  0  0  0  0  0  0  0
    5.3566   59.1448   71.1519 H   0  0  0  0  0  0  0  0  0  0  0  0
    2.6468   59.9374   69.7391 H   0  0  0  0  0  0  0  0  0  0  0  0
    2.0877   61.9795   68.4260 H   0  0  0  0  0  0  0  0  0  0  0  0
    3.3322   64.1022   68.8270 H   0  0  0  0  0  0  0  0  0  0  0  0
    5.1381   64.1821   70.5445 H   0  0  0  0  0  0  0  0  0  0  0  0
    5.7048   62.1449   71.8591 H   0  0  0  0  0  0  0  0  0  0  0  0
  2  1  2  0
  3  1  2  0
  5  4  1  0
  6  5  2  0
  7  6  1  0
  8  7  2  0
  8  1  1  0
  9  8  1  0
 10  9  2  0
 10  5  1  0
 11  1  1  0
 12 11  1  0
 13 12  1  0
 14 13  2  0
 15 14  1  0
 16 15  2  0
 17 16  1  0
 18 13  1  0
 18 17  2  0
  4 19  1  0
  4 20  1  0
  4 21  1  0
  6 22  1  0
  7 23  1  0
  9 24  1  0
 10 25  1  0
 12 26  1  0
 12 27  1  0
 14 28  1  0
 15 29  1  0
 16 30  1  0
 17 31  1  0
 18 32  1  0
M  END
>  <score>  (5) 
-7.903

$$$$
=
     RDKit          3D

 32 33  0  0  0  0  0  0  0  0999 V2000
    4.4780   60.2010   70.8620 S   0  0  0  0  0  6  0  0  0  0  0  0
    3.7990   59.1890   70.0790 O   0  0  0  0  0  0  0  0  0  0  0  0
    5.8930   60.4640   70.6830 O   0  0  0  0  0  0  0  0  0  0  0  0
    1.4850   65.4330   70.1260 C   0  0  0  0  0  0  0  0  0  0  0  0
    2.2370   64.1430   70.2770 C   0  0  0  0  0  0  0  0  0  0  0  0
    1.6490   62.9320   69.8870 C   0  0  0  0  0  0  0  0  0  0  0  0
    2.3320   61.7260   70.0560 C   0  0  0  0  0  0  0  0  0  0  0  0
    3.6090   61.7340   70.6210 C   0  0  0  0  0  0  0  0  0  0  0  0
    4.1970   62.9300   71.0410 C   0  0  0  0  0  0  0  0  0  0  0  0
    3.5080   64.1310   70.8680 C   0  0  0  0  0  0  0  0  0  0  0  0
    4.1550   59.8020   72.8790 S   0  0  0  0  0  0  0  0  0  0  0  0
    2.3810   59.4650   72.8970 C   0  0  0  0  0  0  0  0  0  0  0  0
    1.5450   60.6970   73.1200 C   0  0  0  0  0  0  0  0  0  0  0  0
    2.0800   61.8120   73.7830 C   0  0  0  0  0  0  0  0  0  0  0  0
    1.3060   62.9570   73.9830 C   0  0  0  0  0  0  0  0  0  0  0  0
   -0.0070   63.0000   73.5210 C   0  0  0  0  0  0  0  0  0  0  0  0
   -0.5480   61.9000   72.8580 C   0  0  0  0  0  0  0  0  0  0  0  0
    0.2220   60.7540   72.6580 C   0  0  0  0  0  0  0  0  0  0  0  0
    1.2487   65.8383   71.1209 H   0  0  0  0  0  0  0  0  0  0  0  0
    2.1035   66.1554   69.5732 H   0  0  0  0  0  0  0  0  0  0  0  0
    0.5516   65.2508   69.5732 H   0  0  0  0  0  0  0  0  0  0  0  0
    0.6419   62.9317   69.4445 H   0  0  0  0  0  0  0  0  0  0  0  0
    1.8682   60.7777   69.7467 H   0  0  0  0  0  0  0  0  0  0  0  0
    5.1947   62.9248   71.5042 H   0  0  0  0  0  0  0  0  0  0  0  0
    3.9656   65.0753   71.1978 H   0  0  0  0  0  0  0  0  0  0  0  0
    2.0996   59.0219   71.9303 H   0  0  0  0  0  0  0  0  0  0  0  0
    2.1868   58.7820   73.7371 H   0  0  0  0  0  0  0  0  0  0  0  0
    3.1173   61.7839   74.1481 H   0  0  0  0  0  0  0  0  0  0  0  0
    1.7336   63.8253   74.5057 H   0  0  0  0  0  0  0  0  0  0  0  0
   -0.6168   63.9017   73.6793 H   0  0  0  0  0  0  0  0  0  0  0  0
   -1.5846   61.9355   72.4915 H   0  0  0  0  0  0  0  0  0  0  0  0
   -0.2115   59.8892   72.1344 H   0  0  0  0  0  0  0  0  0  0  0  0
  2  1  2  0
  3  1  2  0
  5  4  1  0
  6  5  2  0
  7  6  1  0
  8  7  2  0
  8  1  1  0
  9  8  1  0
 10  9  2  0
 10  5  1  0
 11  1  1  0
 12 11  1  0
 13 12  1  0
 14 13  2  0
 15 14  1  0
 16 15  2  0
 17 16  1  0
 18 13  1  0
 18 17  2  0
  4 19  1  0
  4 20  1  0
  4 21  1  0
  6 22  1  0
  7 23  1  0
  9 24  1  0
 10 25  1  0
 12 26  1  0
 12 27  1  0
 14 28  1  0
 15 29  1  0
 16 30  1  0
 17 31  1  0
 18 32  1  0
M  END
>  <score>  (6) 
-7.512

$$$$
=
     RDKit          3D

 32 33  0  0  0  0  0  0  0  0999 V2000
    4.4740   60.3600   70.9420 S   0  0  0  0  0  6  0  0  0  0  0  0
    4.1180   59.5130   69.8220 O   0  0  0  0  0  0  0  0  0  0  0  0
    5.8360   60.8250   71.1260 O   0  0  0  0  0  0  0  0  0  0  0  0
    0.8440   65.2200   70.6690 C   0  0  0  0  0  0  0  0  0  0  0  0
    1.7480   64.0250   70.7680 C   0  0  0  0  0  0  0  0  0  0  0  0
    3.1200   64.1540   70.5150 C   0  0  0  0  0  0  0  0  0  0  0  0
    3.9590   63.0390   70.5740 C   0  0  0  0  0  0  0  0  0  0  0  0
    3.4180   61.7900   70.8870 C   0  0  0  0  0  0  0  0  0  0  0  0
    2.0480   61.6400   71.1140 C   0  0  0  0  0  0  0  0  0  0  0  0
    1.2160   62.7590   71.0530 C   0  0  0  0  0  0  0  0  0  0  0  0
    3.8810   59.4150   72.6980 S   0  0  0  0  0  0  0  0  0  0  0  0
    2.7650   58.1460   72.0620 C   0  0  0  0  0  0  0  0  0  0  0  0
    1.4960   58.0160   72.8620 C   0  0  0  0  0  0  0  0  0  0  0  0
    0.7770   59.1570   73.2490 C   0  0  0  0  0  0  0  0  0  0  0  0
   -0.4040   59.0360   73.9840 C   0  0  0  0  0  0  0  0  0  0  0  0
   -0.8780   57.7750   74.3380 C   0  0  0  0  0  0  0  0  0  0  0  0
   -0.1750   56.6340   73.9560 C   0  0  0  0  0  0  0  0  0  0  0  0
    1.0070   56.7530   73.2220 C   0  0  0  0  0  0  0  0  0  0  0  0
    0.5820   65.5663   71.6797 H   0  0  0  0  0  0  0  0  0  0  0  0
    1.3602   66.0264   70.1274 H   0  0  0  0  0  0  0  0  0  0  0  0
   -0.0724   64.9427   70.1274 H   0  0  0  0  0  0  0  0  0  0  0  0
    3.5394   65.1405   70.2681 H   0  0  0  0  0  0  0  0  0  0  0  0
    5.0359   63.1436   70.3758 H   0  0  0  0  0  0  0  0  0  0  0  0
    1.6283   60.6484   71.3389 H   0  0  0  0  0  0  0  0  0  0  0  0
    0.1360   62.6472   71.2296 H   0  0  0  0  0  0  0  0  0  0  0  0
    2.5000   58.4013   71.0254 H   0  0  0  0  0  0  0  0  0  0  0  0
    3.2932   57.1834   72.1288 H   0  0  0  0  0  0  0  0  0  0  0  0
    1.1467   60.1550   72.9711 H   0  0  0  0  0  0  0  0  0  0  0  0
   -0.9601   59.9366   74.2835 H   0  0  0  0  0  0  0  0  0  0  0  0
   -1.8072   57.6798   74.9190 H   0  0  0  0  0  0  0  0  0  0  0  0
   -0.5517   55.6383   74.2330 H   0  0  0  0  0  0  0  0  0  0  0  0
    1.5582   55.8488   72.9242 H   0  0  0  0  0  0  0  0  0  0  0  0
  2  1  2  0
  3  1  2  0
  5  4  1  0
  6  5  2  0
  7  6  1  0
  8  7  2  0
  8  1  1  0
  9  8  1  0
 10  9  2  0
 10  5  1  0
 11  1  1  0
 12 11  1  0
 13 12  1  0
 14 13  2  0
 15 14  1  0
 16 15  2  0
 17 16  1  0
 18 13  1  0
 18 17  2  0
  4 19  1  0
  4 20  1  0
  4 21  1  0
  6 22  1  0
  7 23  1  0
  9 24  1  0
 10 25  1  0
 12 26  1  0
 12 27  1  0
 14 28  1  0
 15 29  1  0
 16 30  1  0
 17 31  1  0
 18 32  1  0
M  END
>  <score>  (7) 
-7.479

$$$$
=
     RDKit          3D

 32 33  0  0  0  0  0  0  0  0999 V2000
    2.3080   57.8990   73.3450 S   0  0  0  0  0  6  0  0  0  0  0  0
    2.5190   57.2130   74.6030 O   0  0  0  0  0  0  0  0  0  0  0  0
    2.2510   57.1690   72.0930 O   0  0  0  0  0  0  0  0  0  0  0  0
   -2.7950   61.1400   73.9200 C   0  0  0  0  0  0  0  0  0  0  0  0
   -1.5460   60.3240   73.7510 C   0  0  0  0  0  0  0  0  0  0  0  0
   -1.4400   59.0620   74.3500 C   0  0  0  0  0  0  0  0  0  0  0  0
   -0.2680   58.3140   74.2230 C   0  0  0  0  0  0  0  0  0  0  0  0
    0.8030   58.8340   73.4930 C   0  0  0  0  0  0  0  0  0  0  0  0
    0.7230   60.1030   72.9130 C   0  0  0  0  0  0  0  0  0  0  0  0
   -0.4520   60.8450   73.0450 C   0  0  0  0  0  0  0  0  0  0  0  0
    3.7550   59.3820   73.1510 S   0  0  0  0  0  0  0  0  0  0  0  0
    4.0780   59.3360   71.3750 C   0  0  0  0  0  0  0  0  0  0  0  0
    4.0830   60.6990   70.7360 C   0  0  0  0  0  0  0  0  0  0  0  0
    3.3210   60.9510   69.5850 C   0  0  0  0  0  0  0  0  0  0  0  0
    3.3210   62.2170   68.9970 C   0  0  0  0  0  0  0  0  0  0  0  0
    4.0790   63.2440   69.5540 C   0  0  0  0  0  0  0  0  0  0  0  0
    4.8380   63.0070   70.6990 C   0  0  0  0  0  0  0  0  0  0  0  0
    4.8410   61.7420   71.2870 C   0  0  0  0  0  0  0  0  0  0  0  0
   -3.0023   61.2754   74.9918 H   0  0  0  0  0  0  0  0  0  0  0  0
   -2.6576   62.1231   73.4460 H   0  0  0  0  0  0  0  0  0  0  0  0
   -3.6401   60.6193   73.4460 H   0  0  0  0  0  0  0  0  0  0  0  0
   -2.2863   58.6575   74.9246 H   0  0  0  0  0  0  0  0  0  0  0  0
   -0.1888   57.3231   74.6941 H   0  0  0  0  0  0  0  0  0  0  0  0
    1.5788   60.5137   72.3571 H   0  0  0  0  0  0  0  0  0  0  0  0
   -0.5203   61.8451   72.5922 H   0  0  0  0  0  0  0  0  0  0  0  0
    5.0606   58.8696   71.2106 H   0  0  0  0  0  0  0  0  0  0  0  0
    3.2637   58.7609   70.9102 H   0  0  0  0  0  0  0  0  0  0  0  0
    2.7186   60.1441   69.1423 H   0  0  0  0  0  0  0  0  0  0  0  0
    2.7221   62.4035   68.0934 H   0  0  0  0  0  0  0  0  0  0  0  0
    4.0788   64.2417   69.0907 H   0  0  0  0  0  0  0  0  0  0  0  0
    5.4355   63.8188   71.1395 H   0  0  0  0  0  0  0  0  0  0  0  0
    5.4427   61.5613   72.1899 H   0  0  0  0  0  0  0  0  0  0  0  0
  2  1  2  0
  3  1  2  0
  5  4  1  0
  6  5  2  0
  7  6  1  0
  8  7  2  0
  8  1  1  0
  9  8  1  0
 10  9  2  0
 10  5  1  0
 11  1  1  0
 12 11  1  0
 13 12  1  0
 14 13  2  0
 15 14  1  0
 16 15  2  0
 17 16  1  0
 18 13  1  0
 18 17  2  0
  4 19  1  0
  4 20  1  0
  4 21  1  0
  6 22  1  0
  7 23  1  0
  9 24  1  0
 10 25  1  0
 12 26  1  0
 12 27  1  0
 14 28  1  0
 15 29  1  0
 16 30  1  0
 17 31  1  0
 18 32  1  0
M  END
>  <score>  (8) 
-7.318

$$$$
=
     RDKit          3D

 32 33  0  0  0  0  0  0  0  0999 V2000
    4.2270   60.0460   70.5250 S   0  0  0  0  0  6  0  0  0  0  0  0
    5.5380   60.5700   70.8500 O   0  0  0  0  0  0  0  0  0  0  0  0
    4.0700   58.9470   69.5920 O   0  0  0  0  0  0  0  0  0  0  0  0
    1.5230   58.5140   75.7420 C   0  0  0  0  0  0  0  0  0  0  0  0
    2.2040   58.8620   74.4500 C   0  0  0  0  0  0  0  0  0  0  0  0
    3.5100   59.3700   74.4540 C   0  0  0  0  0  0  0  0  0  0  0  0
    4.1360   59.7260   73.2570 C   0  0  0  0  0  0  0  0  0  0  0  0
    3.4480   59.5730   72.0520 C   0  0  0  0  0  0  0  0  0  0  0  0
    2.1350   59.0960   72.0340 C   0  0  0  0  0  0  0  0  0  0  0  0
    1.5170   58.7420   73.2340 C   0  0  0  0  0  0  0  0  0  0  0  0
    3.0330   61.6170   69.8650 S   0  0  0  0  0  0  0  0  0  0  0  0
    3.1000   62.7360   71.2800 C   0  0  0  0  0  0  0  0  0  0  0  0
    1.9190   62.5960   72.2040 C   0  0  0  0  0  0  0  0  0  0  0  0
    0.6390   62.3330   71.6920 C   0  0  0  0  0  0  0  0  0  0  0  0
   -0.4530   62.1960   72.5500 C   0  0  0  0  0  0  0  0  0  0  0  0
   -0.2790   62.3180   73.9260 C   0  0  0  0  0  0  0  0  0  0  0  0
    0.9880   62.5750   74.4470 C   0  0  0  0  0  0  0  0  0  0  0  0
    2.0820   62.7140   73.5920 C   0  0  0  0  0  0  0  0  0  0  0  0
    2.1514   58.8351   76.5858 H   0  0  0  0  0  0  0  0  0  0  0  0
    0.5506   59.0257   75.7934 H   0  0  0  0  0  0  0  0  0  0  0  0
    1.3680   57.4262   75.7934 H   0  0  0  0  0  0  0  0  0  0  0  0
    4.0463   59.4893   75.4070 H   0  0  0  0  0  0  0  0  0  0  0  0
    5.1617   60.1233   73.2639 H   0  0  0  0  0  0  0  0  0  0  0  0
    1.5928   59.0003   71.0817 H   0  0  0  0  0  0  0  0  0  0  0  0
    0.4833   58.3661   73.2257 H   0  0  0  0  0  0  0  0  0  0  0  0
    4.0167   62.5243   71.8499 H   0  0  0  0  0  0  0  0  0  0  0  0
    3.0863   63.7627   70.8855 H   0  0  0  0  0  0  0  0  0  0  0  0
    0.4954   62.2341   70.6059 H   0  0  0  0  0  0  0  0  0  0  0  0
   -1.4525   61.9914   72.1387 H   0  0  0  0  0  0  0  0  0  0  0  0
   -1.1407   62.2117   74.6014 H   0  0  0  0  0  0  0  0  0  0  0  0
    1.1258   62.6684   75.5343 H   0  0  0  0  0  0  0  0  0  0  0  0
    3.0791   62.9175   74.0095 H   0  0  0  0  0  0  0  0  0  0  0  0
  2  1  2  0
  3  1  2  0
  5  4  1  0
  6  5  2  0
  7  6  1  0
  8  7  2  0
  8  1  1  0
  9  8  1  0
 10  9  2  0
 10  5  1  0
 11  1  1  0
 12 11  1  0
 13 12  1  0
 14 13  2  0
 15 14  1  0
 16 15  2  0
 17 16  1  0
 18 13  1  0
 18 17  2  0
  4 19  1  0
  4 20  1  0
  4 21  1  0
  6 22  1  0
  7 23  1  0
  9 24  1  0
 10 25  1  0
 12 26  1  0
 12 27  1  0
 14 28  1  0
 15 29  1  0
 16 30  1  0
 17 31  1  0
 18 32  1  0
M  END
>  <score>  (9) 
-7.151

$$$$
