=
     RDKit          3D

 44 47  0  0  0  0  0  0  0  0999 V2000
   -0.1410   69.2460   62.0480 C   0  0  1  0  0  0  0  0  0  0  0  0
    0.7250   69.6620   60.8650 C   0  0  0  0  0  0  0  0  0  0  0  0
    2.1370   69.1690   61.2190 C   0  0  0  0  0  0  0  0  0  0  0  0
    1.9360   68.1590   62.2800 N   0  0  0  0  0  0  0  0  0  0  0  0
    0.4940   67.9030   62.4320 C   0  0  0  0  0  0  0  0  0  0  0  0
    2.6590   68.4440   63.4520 C   0  0  0  0  0  0  0  0  0  0  0  0
    1.9460   68.6800   64.5870 N   0  0  0  0  0  0  0  0  0  0  0  0
    2.6070   69.0300   65.7340 C   0  0  0  0  0  0  0  0  0  0  0  0
    1.8860   69.1670   66.9690 N   0  0  0  0  0  0  0  0  0  0  0  0
    2.5660   69.7200   68.0470 C   0  0  0  0  0  0  0  0  0  0  0  0
    3.8610   70.0490   68.0820 C   0  0  0  0  0  0  0  0  0  0  0  0
    4.6960   69.7520   66.9180 C   0  0  0  0  0  0  0  0  0  0  0  0
    5.9130   69.8710   66.8860 O   0  0  0  0  0  0  0  0  0  0  0  0
    3.9920   69.2590   65.7150 C   0  0  0  0  0  0  0  0  0  0  0  0
    4.7230   69.0210   64.5510 C   0  0  0  0  0  0  0  0  0  0  0  0
    4.0510   68.5930   63.4220 C   0  0  0  0  0  0  0  0  0  0  0  0
    4.7360   68.3950   62.2860 F   0  0  0  0  0  0  0  0  0  0  0  0
    0.6470   68.4990   67.2230 C   0  0  0  0  0  0  0  0  0  0  0  0
   -0.5330   68.9470   66.5920 C   0  0  0  0  0  0  0  0  0  0  0  0
   -1.7590   68.3190   66.8210 C   0  0  0  0  0  0  0  0  0  0  0  0
   -1.8170   67.2300   67.6790 C   0  0  0  0  0  0  0  0  0  0  0  0
   -0.6750   66.7530   68.3060 C   0  0  0  0  0  0  0  0  0  0  0  0
    0.5430   67.3880   68.0730 C   0  0  0  0  0  0  0  0  0  0  0  0
    1.6350   66.8720   68.6620 F   0  0  0  0  0  0  0  0  0  0  0  0
   -2.9880   66.6240   67.9050 F   0  0  0  0  0  0  0  0  0  0  0  0
    0.0130   70.2240   63.1610 N   0  0  0  0  0  4  0  0  0  0  0  0
    4.3790   70.7310   69.3200 C   0  0  0  0  0  0  0  0  0  0  0  0
    5.6210   70.5970   69.5150 O   0  0  0  0  0  0  0  0  0  0  0  0
    3.4880   71.2290   70.0620 O   0  0  0  0  0  1  0  0  0  0  0  0
   -1.2176   69.1922   61.8286 H   0  0  0  0  0  0  0  0  0  0  0  0
    0.3696   69.1869   59.9387 H   0  0  0  0  0  0  0  0  0  0  0  0
    0.6960   70.7477   60.6909 H   0  0  0  0  0  0  0  0  0  0  0  0
    2.6196   68.7158   60.3405 H   0  0  0  0  0  0  0  0  0  0  0  0
    2.7902   69.9902   61.5492 H   0  0  0  0  0  0  0  0  0  0  0  0
    0.1619   67.1016   61.7557 H   0  0  0  0  0  0  0  0  0  0  0  0
    0.2188   67.5683   63.4431 H   0  0  0  0  0  0  0  0  0  0  0  0
    1.9818   69.9051   68.9605 H   0  0  0  0  0  0  0  0  0  0  0  0
    5.8126   69.1710   64.5322 H   0  0  0  0  0  0  0  0  0  0  0  0
   -0.4862   69.8066   65.9072 H   0  0  0  0  0  0  0  0  0  0  0  0
   -2.6707   68.6843   66.3256 H   0  0  0  0  0  0  0  0  0  0  0  0
   -0.7305   65.8844   68.9786 H   0  0  0  0  0  0  0  0  0  0  0  0
   -0.0644   69.7327   64.0629 H   0  0  0  0  0  0  0  0  0  0  0  0
    0.9357   70.6770   63.0948 H   0  0  0  0  0  0  0  0  0  0  0  0
   -0.7258   70.9386   63.0948 H   0  0  0  0  0  0  0  0  0  0  0  0
  2  1  1  0
  3  2  1  0
  4  3  1  0
  5  4  1  0
  5  1  1  0
  6  4  1  0
  7  6  2  0
  8  7  1  0
  9  8  1  0
 10  9  1  0
 11 10  2  0
 12 11  1  0
 13 12  2  0
 14 12  1  0
 14  8  2  0
 15 14  1  0
 16 15  2  0
 16  6  1  0
 17 16  1  0
 18  9  1  0
 19 18  2  0
 20 19  1  0
 21 20  2  0
 22 21  1  0
 23 22  2  0
 23 18  1  0
 24 23  1  0
 25 21  1  0
 26  1  1  0
 27 11  1  0
 28 27  2  0
 29 27  1  0
  1 30  1  6
  2 31  1  0
  2 32  1  0
  3 33  1  0
  3 34  1  0
  5 35  1  0
  5 36  1  0
 10 37  1  0
 15 38  1  0
 19 39  1  0
 20 40  1  0
 22 41  1  0
 26 42  1  0
 26 43  1  0
 26 44  1  0
M  CHG  2  26   1  29  -1
M  END
>  <score>  (1) 
-11.24

$$$$
=
     RDKit          3D

 44 47  0  0  0  0  0  0  0  0999 V2000
    0.3140   57.8570   74.3150 C   0  0  1  0  0  0  0  0  0  0  0  0
    0.7290   56.7660   73.3350 C   0  0  0  0  0  0  0  0  0  0  0  0
    1.9080   57.3680   72.5530 C   0  0  0  0  0  0  0  0  0  0  0  0
    2.3780   58.5010   73.3790 N   0  0  0  0  0  0  0  0  0  0  0  0
    1.6710   58.4790   74.6700 C   0  0  0  0  0  0  0  0  0  0  0  0
    2.3900   59.7210   72.6810 C   0  0  0  0  0  0  0  0  0  0  0  0
    1.5720   60.7100   73.1320 N   0  0  0  0  0  0  0  0  0  0  0  0
    1.5010   61.8900   72.4400 C   0  0  0  0  0  0  0  0  0  0  0  0
    0.7370   62.9880   72.9640 N   0  0  0  0  0  0  0  0  0  0  0  0
    0.5320   64.0790   72.1280 C   0  0  0  0  0  0  0  0  0  0  0  0
    1.0600   64.2550   70.9130 C   0  0  0  0  0  0  0  0  0  0  0  0
    2.0050   63.2620   70.4030 C   0  0  0  0  0  0  0  0  0  0  0  0
    2.6600   63.3860   69.3770 O   0  0  0  0  0  0  0  0  0  0  0  0
    2.1700   62.0380   71.2150 C   0  0  0  0  0  0  0  0  0  0  0  0
    3.0060   61.0220   70.7500 C   0  0  0  0  0  0  0  0  0  0  0  0
    3.1280   59.8680   71.5000 C   0  0  0  0  0  0  0  0  0  0  0  0
    3.9000   58.8690   71.0460 F   0  0  0  0  0  0  0  0  0  0  0  0
    0.4540   63.1430   74.3570 C   0  0  0  0  0  0  0  0  0  0  0  0
    1.3240   63.9030   75.1680 C   0  0  0  0  0  0  0  0  0  0  0  0
    1.0780   64.0700   76.5330 C   0  0  0  0  0  0  0  0  0  0  0  0
   -0.0450   63.4860   77.1000 C   0  0  0  0  0  0  0  0  0  0  0  0
   -0.9300   62.7450   76.3310 C   0  0  0  0  0  0  0  0  0  0  0  0
   -0.6750   62.5810   74.9700 C   0  0  0  0  0  0  0  0  0  0  0  0
   -1.5770   61.8950   74.2480 F   0  0  0  0  0  0  0  0  0  0  0  0
   -0.2860   63.6410   78.4070 F   0  0  0  0  0  0  0  0  0  0  0  0
   -0.5460   58.8600   73.6260 N   0  0  0  0  0  4  0  0  0  0  0  0
    0.6290   65.4670   70.1290 C   0  0  0  0  0  0  0  0  0  0  0  0
   -0.3910   65.2890   69.4040 O   0  0  0  0  0  0  0  0  0  0  0  0
    1.4180   66.4500   70.1980 O   0  0  0  0  0  1  0  0  0  0  0  0
   -0.2605   57.4975   75.1814 H   0  0  0  0  0  0  0  0  0  0  0  0
    1.0437   55.8602   73.8740 H   0  0  0  0  0  0  0  0  0  0  0  0
   -0.0973   56.4654   72.6740 H   0  0  0  0  0  0  0  0  0  0  0  0
    2.7081   56.6238   72.4267 H   0  0  0  0  0  0  0  0  0  0  0  0
    1.6127   57.6882   71.5429 H   0  0  0  0  0  0  0  0  0  0  0  0
    2.2086   57.8606   75.4038 H   0  0  0  0  0  0  0  0  0  0  0  0
    1.5826   59.4739   75.1308 H   0  0  0  0  0  0  0  0  0  0  0  0
   -0.1288   64.8747   72.5026 H   0  0  0  0  0  0  0  0  0  0  0  0
    3.5570   61.1376   69.8050 H   0  0  0  0  0  0  0  0  0  0  0  0
    2.2112   64.3720   74.7174 H   0  0  0  0  0  0  0  0  0  0  0  0
    1.7692   64.6598   77.1530 H   0  0  0  0  0  0  0  0  0  0  0  0
   -1.8218   62.2924   76.7890 H   0  0  0  0  0  0  0  0  0  0  0  0
   -1.0364   59.4320   74.3283 H   0  0  0  0  0  0  0  0  0  0  0  0
    0.0404   59.4681   73.0367 H   0  0  0  0  0  0  0  0  0  0  0  0
   -1.2365   58.3733   73.0367 H   0  0  0  0  0  0  0  0  0  0  0  0
  2  1  1  0
  3  2  1  0
  4  3  1  0
  5  4  1  0
  5  1  1  0
  6  4  1  0
  7  6  2  0
  8  7  1  0
  9  8  1  0
 10  9  1  0
 11 10  2  0
 12 11  1  0
 13 12  2  0
 14 12  1  0
 14  8  2  0
 15 14  1  0
 16 15  2  0
 16  6  1  0
 17 16  1  0
 18  9  1  0
 19 18  2  0
 20 19  1  0
 21 20  2  0
 22 21  1  0
 23 22  2  0
 23 18  1  0
 24 23  1  0
 25 21  1  0
 26  1  1  0
 27 11  1  0
 28 27  2  0
 29 27  1  0
  1 30  1  1
  2 31  1  0
  2 32  1  0
  3 33  1  0
  3 34  1  0
  5 35  1  0
  5 36  1  0
 10 37  1  0
 15 38  1  0
 19 39  1  0
 20 40  1  0
 22 41  1  0
 26 42  1  0
 26 43  1  0
 26 44  1  0
M  CHG  2  26   1  29  -1
M  END
>  <score>  (2) 
-9.151

$$$$
=
     RDKit          3D

 44 47  0  0  0  0  0  0  0  0999 V2000
   -1.6190   63.3580   75.9000 C   0  0  1  0  0  0  0  0  0  0  0  0
   -1.8260   62.6770   77.2480 C   0  0  0  0  0  0  0  0  0  0  0  0
   -0.4570   62.0730   77.5970 C   0  0  0  0  0  0  0  0  0  0  0  0
    0.5090   62.7840   76.7320 N   0  0  0  0  0  0  0  0  0  0  0  0
   -0.1840   63.8850   76.0430 C   0  0  0  0  0  0  0  0  0  0  0  0
    1.2750   61.9160   75.9350 C   0  0  0  0  0  0  0  0  0  0  0  0
    1.1380   62.0190   74.5850 N   0  0  0  0  0  0  0  0  0  0  0  0
    1.8120   61.1460   73.7740 C   0  0  0  0  0  0  0  0  0  0  0  0
    1.7760   61.3130   72.3470 N   0  0  0  0  0  0  0  0  0  0  0  0
    2.3020   60.2870   71.5720 C   0  0  0  0  0  0  0  0  0  0  0  0
    2.9320   59.1980   72.0210 C   0  0  0  0  0  0  0  0  0  0  0  0
    3.1750   59.0650   73.4580 C   0  0  0  0  0  0  0  0  0  0  0  0
    3.8630   58.1930   73.9700 O   0  0  0  0  0  0  0  0  0  0  0  0
    2.5420   60.0810   74.3250 C   0  0  0  0  0  0  0  0  0  0  0  0
    2.6800   59.9730   75.7090 C   0  0  0  0  0  0  0  0  0  0  0  0
    2.0560   60.9080   76.5130 C   0  0  0  0  0  0  0  0  0  0  0  0
    2.1510   60.7940   77.8460 F   0  0  0  0  0  0  0  0  0  0  0  0
    1.5210   62.5710   71.7180 C   0  0  0  0  0  0  0  0  0  0  0  0
    2.6020   63.3650   71.2760 C   0  0  0  0  0  0  0  0  0  0  0  0
    2.3870   64.6000   70.6620 C   0  0  0  0  0  0  0  0  0  0  0  0
    1.0880   65.0530   70.4760 C   0  0  0  0  0  0  0  0  0  0  0  0
    0.0020   64.2940   70.8850 C   0  0  0  0  0  0  0  0  0  0  0  0
    0.2270   63.0630   71.4990 C   0  0  0  0  0  0  0  0  0  0  0  0
   -0.8500   62.3350   71.8420 F   0  0  0  0  0  0  0  0  0  0  0  0
    0.8750   66.2370   69.8890 F   0  0  0  0  0  0  0  0  0  0  0  0
   -1.6900   62.3500   74.8040 N   0  0  0  0  0  4  0  0  0  0  0  0
    3.3390   58.1540   71.0130 C   0  0  0  0  0  0  0  0  0  0  0  0
    4.0480   58.5890   70.0620 O   0  0  0  0  0  0  0  0  0  0  0  0
    2.8080   57.0220   71.1820 O   0  0  0  0  0  1  0  0  0  0  0  0
   -2.3638   64.1310   75.6598 H   0  0  0  0  0  0  0  0  0  0  0  0
   -2.1317   63.4097   78.0094 H   0  0  0  0  0  0  0  0  0  0  0  0
   -2.6186   61.9152   77.2109 H   0  0  0  0  0  0  0  0  0  0  0  0
   -0.2206   62.2395   78.6583 H   0  0  0  0  0  0  0  0  0  0  0  0
   -0.4328   60.9853   77.4349 H   0  0  0  0  0  0  0  0  0  0  0  0
   -0.1595   64.8052   76.6451 H   0  0  0  0  0  0  0  0  0  0  0  0
    0.2769   64.1507   75.0802 H   0  0  0  0  0  0  0  0  0  0  0  0
    2.1886   60.3805   70.4819 H   0  0  0  0  0  0  0  0  0  0  0  0
    3.2738   59.1597   76.1516 H   0  0  0  0  0  0  0  0  0  0  0  0
    3.6313   63.0040   71.4180 H   0  0  0  0  0  0  0  0  0  0  0  0
    3.2399   65.2093   70.3283 H   0  0  0  0  0  0  0  0  0  0  0  0
   -1.0237   64.6586   70.7270 H   0  0  0  0  0  0  0  0  0  0  0  0
   -1.7565   61.4057   75.2098 H   0  0  0  0  0  0  0  0  0  0  0  0
   -2.5202   62.5330   74.2225 H   0  0  0  0  0  0  0  0  0  0  0  0
   -0.8424   62.4148   74.2225 H   0  0  0  0  0  0  0  0  0  0  0  0
  2  1  1  0
  3  2  1  0
  4  3  1  0
  5  4  1  0
  5  1  1  0
  6  4  1  0
  7  6  2  0
  8  7  1  0
  9  8  1  0
 10  9  1  0
 11 10  2  0
 12 11  1  0
 13 12  2  0
 14 12  1  0
 14  8  2  0
 15 14  1  0
 16 15  2  0
 16  6  1  0
 17 16  1  0
 18  9  1  0
 19 18  2  0
 20 19  1  0
 21 20  2  0
 22 21  1  0
 23 22  2  0
 23 18  1  0
 24 23  1  0
 25 21  1  0
 26  1  1  0
 27 11  1  0
 28 27  2  0
 29 27  1  0
  1 30  1  6
  2 31  1  0
  2 32  1  0
  3 33  1  0
  3 34  1  0
  5 35  1  0
  5 36  1  0
 10 37  1  0
 15 38  1  0
 19 39  1  0
 20 40  1  0
 22 41  1  0
 26 42  1  0
 26 43  1  0
 26 44  1  0
M  CHG  2  26   1  29  -1
M  END
>  <score>  (3) 
-8.63

$$$$
=
     RDKit          3D

 44 47  0  0  0  0  0  0  0  0999 V2000
    2.2640   56.2860   73.9910 C   0  0  1  0  0  0  0  0  0  0  0  0
    1.4140   55.4880   74.9720 C   0  0  0  0  0  0  0  0  0  0  0  0
    0.0340   56.1640   74.9380 C   0  0  0  0  0  0  0  0  0  0  0  0
    0.0250   56.9550   73.6880 N   0  0  0  0  0  0  0  0  0  0  0  0
    1.2320   56.6340   72.9090 C   0  0  0  0  0  0  0  0  0  0  0  0
   -0.2510   58.3170   73.9030 C   0  0  0  0  0  0  0  0  0  0  0  0
    0.7200   59.2120   73.5750 N   0  0  0  0  0  0  0  0  0  0  0  0
    0.5190   60.5430   73.8330 C   0  0  0  0  0  0  0  0  0  0  0  0
    1.4780   61.5160   73.3870 N   0  0  0  0  0  0  0  0  0  0  0  0
    1.3290   62.8170   73.8520 C   0  0  0  0  0  0  0  0  0  0  0  0
    0.3220   63.2810   74.5970 C   0  0  0  0  0  0  0  0  0  0  0  0
   -0.7880   62.3850   74.9210 C   0  0  0  0  0  0  0  0  0  0  0  0
   -1.8260   62.7320   75.4670 O   0  0  0  0  0  0  0  0  0  0  0  0
   -0.6200   60.9680   74.5340 C   0  0  0  0  0  0  0  0  0  0  0  0
   -1.6130   60.0490   74.8730 C   0  0  0  0  0  0  0  0  0  0  0  0
   -1.4320   58.7210   74.5370 C   0  0  0  0  0  0  0  0  0  0  0  0
   -2.3620   57.8220   74.8900 F   0  0  0  0  0  0  0  0  0  0  0  0
    2.3580   61.2900   72.2830 C   0  0  0  0  0  0  0  0  0  0  0  0
    1.9700   61.6870   70.9850 C   0  0  0  0  0  0  0  0  0  0  0  0
    2.8050   61.4780   69.8860 C   0  0  0  0  0  0  0  0  0  0  0  0
    4.0410   60.8750   70.0720 C   0  0  0  0  0  0  0  0  0  0  0  0
    4.4610   60.4850   71.3350 C   0  0  0  0  0  0  0  0  0  0  0  0
    3.6200   60.6960   72.4260 C   0  0  0  0  0  0  0  0  0  0  0  0
    4.0790   60.3460   73.6400 F   0  0  0  0  0  0  0  0  0  0  0  0
    4.8450   60.6700   69.0230 F   0  0  0  0  0  0  0  0  0  0  0  0
    2.7640   57.5290   74.6430 N   0  0  0  0  0  4  0  0  0  0  0  0
    0.4040   64.7050   75.0810 C   0  0  0  0  0  0  0  0  0  0  0  0
   -0.3540   65.5130   74.4700 O   0  0  0  0  0  0  0  0  0  0  0  0
    1.3080   64.9230   75.9330 O   0  0  0  0  0  1  0  0  0  0  0  0
    3.1510   55.7533   73.6175 H   0  0  0  0  0  0  0  0  0  0  0  0
    1.3387   54.4377   74.6539 H   0  0  0  0  0  0  0  0  0  0  0  0
    1.8465   55.4788   75.9834 H   0  0  0  0  0  0  0  0  0  0  0  0
   -0.7659   55.4091   74.9234 H   0  0  0  0  0  0  0  0  0  0  0  0
   -0.1405   56.7911   75.8247 H   0  0  0  0  0  0  0  0  0  0  0  0
    1.0551   55.7772   72.2422 H   0  0  0  0  0  0  0  0  0  0  0  0
    1.5543   57.4564   72.2534 H   0  0  0  0  0  0  0  0  0  0  0  0
    2.1171   63.5347   73.5801 H   0  0  0  0  0  0  0  0  0  0  0  0
   -2.5230   60.3753   75.3979 H   0  0  0  0  0  0  0  0  0  0  0  0
    0.9926   62.1695   70.8370 H   0  0  0  0  0  0  0  0  0  0  0  0
    2.4857   61.7889   68.8803 H   0  0  0  0  0  0  0  0  0  0  0  0
    5.4458   60.0149   71.4738 H   0  0  0  0  0  0  0  0  0  0  0  0
    2.7206   57.4212   75.6664 H   0  0  0  0  0  0  0  0  0  0  0  0
    3.7387   57.6987   74.3566 H   0  0  0  0  0  0  0  0  0  0  0  0
    2.1783   58.3264   74.3566 H   0  0  0  0  0  0  0  0  0  0  0  0
  2  1  1  0
  3  2  1  0
  4  3  1  0
  5  4  1  0
  5  1  1  0
  6  4  1  0
  7  6  2  0
  8  7  1  0
  9  8  1  0
 10  9  1  0
 11 10  2  0
 12 11  1  0
 13 12  2  0
 14 12  1  0
 14  8  2  0
 15 14  1  0
 16 15  2  0
 16  6  1  0
 17 16  1  0
 18  9  1  0
 19 18  2  0
 20 19  1  0
 21 20  2  0
 22 21  1  0
 23 22  2  0
 23 18  1  0
 24 23  1  0
 25 21  1  0
 26  1  1  0
 27 11  1  0
 28 27  2  0
 29 27  1  0
  1 30  1  6
  2 31  1  0
  2 32  1  0
  3 33  1  0
  3 34  1  0
  5 35  1  0
  5 36  1  0
 10 37  1  0
 15 38  1  0
 19 39  1  0
 20 40  1  0
 22 41  1  0
 26 42  1  0
 26 43  1  0
 26 44  1  0
M  CHG  2  26   1  29  -1
M  END
>  <score>  (4) 
-8.604

$$$$
=
     RDKit          3D

 44 47  0  0  0  0  0  0  0  0999 V2000
    1.0550   61.8960   77.7430 C   0  0  1  0  0  0  0  0  0  0  0  0
    1.0970   63.4110   77.9070 C   0  0  0  0  0  0  0  0  0  0  0  0
    0.6450   63.9660   76.5470 C   0  0  0  0  0  0  0  0  0  0  0  0
   -0.0340   62.8360   75.8770 N   0  0  0  0  0  0  0  0  0  0  0  0
   -0.1680   61.7230   76.8310 C   0  0  0  0  0  0  0  0  0  0  0  0
    0.5150   62.5330   74.6190 C   0  0  0  0  0  0  0  0  0  0  0  0
    1.0800   61.3050   74.4610 N   0  0  0  0  0  0  0  0  0  0  0  0
    1.6890   60.9950   73.2730 C   0  0  0  0  0  0  0  0  0  0  0  0
    2.1860   59.6660   73.0430 N   0  0  0  0  0  0  0  0  0  0  0  0
    2.9700   59.4660   71.9140 C   0  0  0  0  0  0  0  0  0  0  0  0
    3.2310   60.3650   70.9610 C   0  0  0  0  0  0  0  0  0  0  0  0
    2.5930   61.6790   71.0370 C   0  0  0  0  0  0  0  0  0  0  0  0
    2.6380   62.5270   70.1560 O   0  0  0  0  0  0  0  0  0  0  0  0
    1.8340   61.9690   72.2730 C   0  0  0  0  0  0  0  0  0  0  0  0
    1.2580   63.2280   72.4370 C   0  0  0  0  0  0  0  0  0  0  0  0
    0.5800   63.5010   73.6090 C   0  0  0  0  0  0  0  0  0  0  0  0
    0.0530   64.7200   73.7940 F   0  0  0  0  0  0  0  0  0  0  0  0
    1.6730   58.5170   73.7220 C   0  0  0  0  0  0  0  0  0  0  0  0
    0.4380   57.9610   73.3230 C   0  0  0  0  0  0  0  0  0  0  0  0
   -0.0920   56.8410   73.9670 C   0  0  0  0  0  0  0  0  0  0  0  0
    0.6110   56.2600   75.0140 C   0  0  0  0  0  0  0  0  0  0  0  0
    1.8340   56.7710   75.4230 C   0  0  0  0  0  0  0  0  0  0  0  0
    2.3530   57.8900   74.7760 C   0  0  0  0  0  0  0  0  0  0  0  0
    3.5600   58.3300   75.1700 F   0  0  0  0  0  0  0  0  0  0  0  0
    0.1080   55.1880   75.6360 F   0  0  0  0  0  0  0  0  0  0  0  0
    2.2850   61.4240   77.0460 N   0  0  0  0  0  4  0  0  0  0  0  0
    4.1910   59.9730   69.8690 C   0  0  0  0  0  0  0  0  0  0  0  0
    3.7950   59.0210   69.1360 O   0  0  0  0  0  0  0  0  0  0  0  0
    5.3100   60.5550   69.9150 O   0  0  0  0  0  1  0  0  0  0  0  0
    0.9993   61.3366   78.6885 H   0  0  0  0  0  0  0  0  0  0  0  0
    0.4113   63.7336   78.7044 H   0  0  0  0  0  0  0  0  0  0  0  0
    2.0973   63.7703   78.1903 H   0  0  0  0  0  0  0  0  0  0  0  0
   -0.0500   64.8074   76.6848 H   0  0  0  0  0  0  0  0  0  0  0  0
    1.4903   64.3482   75.9560 H   0  0  0  0  0  0  0  0  0  0  0  0
   -1.1030   61.8052   77.4046 H   0  0  0  0  0  0  0  0  0  0  0  0
   -0.2072   60.7379   76.3430 H   0  0  0  0  0  0  0  0  0  0  0  0
    3.4201   58.4697   71.7927 H   0  0  0  0  0  0  0  0  0  0  0  0
    1.3419   63.9897   71.6478 H   0  0  0  0  0  0  0  0  0  0  0  0
   -0.1164   58.4181   72.4902 H   0  0  0  0  0  0  0  0  0  0  0  0
   -1.0579   56.4227   73.6476 H   0  0  0  0  0  0  0  0  0  0  0  0
    2.3871   56.2984   76.2480 H   0  0  0  0  0  0  0  0  0  0  0  0
    2.9923   61.1526   77.7438 H   0  0  0  0  0  0  0  0  0  0  0  0
    2.0550   60.6115   76.4563 H   0  0  0  0  0  0  0  0  0  0  0  0
    2.6576   62.1818   76.4563 H   0  0  0  0  0  0  0  0  0  0  0  0
  2  1  1  0
  3  2  1  0
  4  3  1  0
  5  4  1  0
  5  1  1  0
  6  4  1  0
  7  6  2  0
  8  7  1  0
  9  8  1  0
 10  9  1  0
 11 10  2  0
 12 11  1  0
 13 12  2  0
 14 12  1  0
 14  8  2  0
 15 14  1  0
 16 15  2  0
 16  6  1  0
 17 16  1  0
 18  9  1  0
 19 18  2  0
 20 19  1  0
 21 20  2  0
 22 21  1  0
 23 22  2  0
 23 18  1  0
 24 23  1  0
 25 21  1  0
 26  1  1  0
 27 11  1  0
 28 27  2  0
 29 27  1  0
  1 30  1  1
  2 31  1  0
  2 32  1  0
  3 33  1  0
  3 34  1  0
  5 35  1  0
  5 36  1  0
 10 37  1  0
 15 38  1  0
 19 39  1  0
 20 40  1  0
 22 41  1  0
 26 42  1  0
 26 43  1  0
 26 44  1  0
M  CHG  2  26   1  29  -1
M  END
>  <score>  (5) 
-8.543

$$$$
