=
     RDKit          3D

 54 57  0  0  0  0  0  0  0  0999 V2000
    1.6050   65.2750   70.6140 N   0  0  0  0  0  4  0  0  0  0  0  0
    0.4460   64.9560   71.5570 C   0  0  0  0  0  0  0  0  0  0  0  0
   -0.1350   63.5410   71.3330 C   0  0  0  0  0  0  0  0  0  0  0  0
    0.9270   62.5020   71.5360 N   0  0  0  0  0  0  0  0  0  0  0  0
    2.2870   62.8390   70.9690 C   0  0  0  0  0  0  0  0  0  0  0  0
    2.2430   64.0340   69.9910 C   0  0  0  0  0  0  0  0  0  0  0  0
    0.7510   61.4310   72.3540 C   0  0  0  0  0  0  0  0  0  0  0  0
   -0.4550   61.1440   72.8440 N   0  0  0  0  0  4  0  0  0  0  0  0
   -0.7070   60.3800   73.9630 C   0  0  0  0  0  0  0  0  0  0  0  0
   -1.8920   59.6290   73.9710 C   0  0  0  0  0  0  0  0  0  0  0  0
   -2.2710   58.8910   75.0940 C   0  0  0  0  0  0  0  0  0  0  0  0
   -1.4860   58.9150   76.2420 C   0  0  0  0  0  0  0  0  0  0  0  0
   -0.3220   59.6820   76.2740 C   0  0  0  0  0  0  0  0  0  0  0  0
    0.0700   60.4190   75.1470 C   0  0  0  0  0  0  0  0  0  0  0  0
    1.5500   61.4320   75.3010 S   0  0  0  0  0  0  0  0  0  0  0  0
    2.4600   60.6180   74.0080 C   0  0  0  0  0  0  0  0  0  0  0  0
    1.9310   60.5960   72.7110 C   0  0  0  0  0  0  0  0  0  0  0  0
    2.5290   59.7590   71.7530 C   0  0  0  0  0  0  0  0  0  0  0  0
    3.6780   59.0310   72.0650 C   0  0  0  0  0  0  0  0  0  0  0  0
    4.2300   59.1140   73.3400 C   0  0  0  0  0  0  0  0  0  0  0  0
    3.6160   59.8970   74.3170 C   0  0  0  0  0  0  0  0  0  0  0  0
    1.2140   66.3430   69.5680 C   0  0  0  0  0  0  0  0  0  0  0  0
   -0.3090   66.4450   69.4070 C   0  0  0  0  0  0  0  0  0  0  0  0
   -0.7330   66.4390   68.0430 O   0  0  0  0  0  0  0  0  0  0  0  0
   -0.6890   67.6930   67.3390 C   0  0  0  0  0  0  0  0  0  0  0  0
   -2.0090   68.1690   66.7290 C   0  0  0  0  0  0  0  0  0  0  0  0
   -3.0810   67.8410   67.6210 O   0  0  0  0  0  0  0  0  0  0  0  0
    2.3470   65.6868   71.1977 H   0  0  0  0  0  0  0  0  0  0  0  0
    0.8062   65.0282   72.5939 H   0  0  0  0  0  0  0  0  0  0  0  0
   -0.3565   65.6802   71.3531 H   0  0  0  0  0  0  0  0  0  0  0  0
   -0.9530   63.3677   72.0477 H   0  0  0  0  0  0  0  0  0  0  0  0
   -0.5123   63.4691   70.3022 H   0  0  0  0  0  0  0  0  0  0  0  0
    2.9632   63.0884   71.7999 H   0  0  0  0  0  0  0  0  0  0  0  0
    2.6408   61.9617   70.4076 H   0  0  0  0  0  0  0  0  0  0  0  0
    1.6591   63.7438   69.1051 H   0  0  0  0  0  0  0  0  0  0  0  0
    3.2799   64.2879   69.7257 H   0  0  0  0  0  0  0  0  0  0  0  0
   -1.2694   61.5265   72.3427 H   0  0  0  0  0  0  0  0  0  0  0  0
   -2.5334   59.6215   73.0774 H   0  0  0  0  0  0  0  0  0  0  0  0
   -3.1918   58.2897   75.0708 H   0  0  0  0  0  0  0  0  0  0  0  0
   -1.7833   58.3291   77.1242 H   0  0  0  0  0  0  0  0  0  0  0  0
    0.2913   59.7091   77.1868 H   0  0  0  0  0  0  0  0  0  0  0  0
    2.0875   59.6771   70.7488 H   0  0  0  0  0  0  0  0  0  0  0  0
    4.1475   58.3914   71.3031 H   0  0  0  0  0  0  0  0  0  0  0  0
    5.1512   58.5616   73.5771 H   0  0  0  0  0  0  0  0  0  0  0  0
    4.0415   59.9469   75.3301 H   0  0  0  0  0  0  0  0  0  0  0  0
    1.6050   67.3191   69.8911 H   0  0  0  0  0  0  0  0  0  0  0  0
    1.6436   66.0490   68.5989 H   0  0  0  0  0  0  0  0  0  0  0  0
   -0.7728   65.5901   69.9209 H   0  0  0  0  0  0  0  0  0  0  0  0
   -0.6196   67.4067   69.8413 H   0  0  0  0  0  0  0  0  0  0  0  0
   -0.3483   68.4636   68.0461 H   0  0  0  0  0  0  0  0  0  0  0  0
   -0.0117   67.5304   66.4877 H   0  0  0  0  0  0  0  0  0  0  0  0
   -1.9743   69.2582   66.5791 H   0  0  0  0  0  0  0  0  0  0  0  0
   -2.1690   67.6757   65.7589 H   0  0  0  0  0  0  0  0  0  0  0  0
   -2.7722   67.9355   68.5569 H   0  0  0  0  0  0  0  0  0  0  0  0
  2  1  1  0
  3  2  1  0
  4  3  1  0
  5  4  1  0
  6  1  1  0
  6  5  1  0
  7  4  1  0
  8  7  2  0
  9  8  1  0
 10  9  2  0
 11 10  1  0
 12 11  2  0
 13 12  1  0
 14 13  2  0
 14  9  1  0
 15 14  1  0
 16 15  1  0
 17 16  2  0
 17  7  1  0
 18 17  1  0
 19 18  2  0
 20 19  1  0
 21 20  2  0
 21 16  1  0
 22  1  1  0
 23 22  1  0
 24 23  1  0
 25 24  1  0
 26 25  1  0
 27 26  1  0
  1 28  1  0
  2 29  1  0
  2 30  1  0
  3 31  1  0
  3 32  1  0
  5 33  1  0
  5 34  1  0
  6 35  1  0
  6 36  1  0
  8 37  1  0
 10 38  1  0
 11 39  1  0
 12 40  1  0
 13 41  1  0
 18 42  1  0
 19 43  1  0
 20 44  1  0
 21 45  1  0
 22 46  1  0
 22 47  1  0
 23 48  1  0
 23 49  1  0
 25 50  1  0
 25 51  1  0
 26 52  1  0
 26 53  1  0
 27 54  1  0
M  CHG  2   1   1   8   1
M  END
>  <score>  (1) 
-7.251

$$$$
=
     RDKit          3D

 54 57  0  0  0  0  0  0  0  0999 V2000
    1.9050   63.0440   78.1220 N   0  0  0  0  0  4  0  0  0  0  0  0
    2.5120   61.7070   77.6990 C   0  0  0  0  0  0  0  0  0  0  0  0
    1.5780   60.8920   76.7750 C   0  0  0  0  0  0  0  0  0  0  0  0
    1.2610   61.6700   75.5330 N   0  0  0  0  0  0  0  0  0  0  0  0
    0.9940   63.1440   75.7370 C   0  0  0  0  0  0  0  0  0  0  0  0
    0.7600   63.5060   77.2200 C   0  0  0  0  0  0  0  0  0  0  0  0
    1.4130   61.1480   74.2880 C   0  0  0  0  0  0  0  0  0  0  0  0
    1.6450   59.8460   74.1230 N   0  0  0  0  0  4  0  0  0  0  0  0
    2.2090   59.2640   73.0090 C   0  0  0  0  0  0  0  0  0  0  0  0
    1.7910   57.9640   72.6840 C   0  0  0  0  0  0  0  0  0  0  0  0
    2.3670   57.2650   71.6220 C   0  0  0  0  0  0  0  0  0  0  0  0
    3.3950   57.8420   70.8820 C   0  0  0  0  0  0  0  0  0  0  0  0
    3.8550   59.1180   71.2070 C   0  0  0  0  0  0  0  0  0  0  0  0
    3.2750   59.8300   72.2660 C   0  0  0  0  0  0  0  0  0  0  0  0
    3.9760   61.4420   72.6550 S   0  0  0  0  0  0  0  0  0  0  0  0
    2.4830   62.3630   72.3640 C   0  0  0  0  0  0  0  0  0  0  0  0
    1.3370   62.0570   73.1110 C   0  0  0  0  0  0  0  0  0  0  0  0
    0.1090   62.6180   72.7200 C   0  0  0  0  0  0  0  0  0  0  0  0
    0.0480   63.5260   71.6630 C   0  0  0  0  0  0  0  0  0  0  0  0
    1.2070   63.8700   70.9720 C   0  0  0  0  0  0  0  0  0  0  0  0
    2.4230   63.2800   71.3130 C   0  0  0  0  0  0  0  0  0  0  0  0
    1.5350   63.0550   79.6220 C   0  0  0  0  0  0  0  0  0  0  0  0
    2.6400   63.6970   80.4710 C   0  0  0  0  0  0  0  0  0  0  0  0
    3.9100   63.0650   80.3150 O   0  0  0  0  0  0  0  0  0  0  0  0
    4.9620   63.8460   79.7230 C   0  0  0  0  0  0  0  0  0  0  0  0
    6.3700   63.2540   79.8070 C   0  0  0  0  0  0  0  0  0  0  0  0
    7.0930   63.5960   78.6180 O   0  0  0  0  0  0  0  0  0  0  0  0
    2.6431   63.7505   77.9919 H   0  0  0  0  0  0  0  0  0  0  0  0
    3.4534   61.9016   77.1642 H   0  0  0  0  0  0  0  0  0  0  0  0
    2.6765   61.1141   78.6108 H   0  0  0  0  0  0  0  0  0  0  0  0
    2.0751   59.9512   76.4962 H   0  0  0  0  0  0  0  0  0  0  0  0
    0.6415   60.6805   77.3118 H   0  0  0  0  0  0  0  0  0  0  0  0
    1.8599   63.7132   75.3679 H   0  0  0  0  0  0  0  0  0  0  0  0
    0.0770   63.3959   75.1841 H   0  0  0  0  0  0  0  0  0  0  0  0
   -0.1708   63.0268   77.5577 H   0  0  0  0  0  0  0  0  0  0  0  0
    0.6989   64.6020   77.2914 H   0  0  0  0  0  0  0  0  0  0  0  0
    1.3792   59.2198   74.8964 H   0  0  0  0  0  0  0  0  0  0  0  0
    0.9958   57.4879   73.2765 H   0  0  0  0  0  0  0  0  0  0  0  0
    2.0079   56.2564   71.3694 H   0  0  0  0  0  0  0  0  0  0  0  0
    3.8442   57.2923   70.0417 H   0  0  0  0  0  0  0  0  0  0  0  0
    4.6764   59.5675   70.6298 H   0  0  0  0  0  0  0  0  0  0  0  0
   -0.8121   62.3385   73.2523 H   0  0  0  0  0  0  0  0  0  0  0  0
   -0.9161   63.9706   71.3751 H   0  0  0  0  0  0  0  0  0  0  0  0
    1.1629   64.6074   70.1570 H   0  0  0  0  0  0  0  0  0  0  0  0
    3.3350   63.5368   70.7542 H   0  0  0  0  0  0  0  0  0  0  0  0
    0.6044   63.6260   79.7561 H   0  0  0  0  0  0  0  0  0  0  0  0
    1.4077   62.0137   79.9529 H   0  0  0  0  0  0  0  0  0  0  0  0
    2.7369   64.7527   80.1777 H   0  0  0  0  0  0  0  0  0  0  0  0
    2.3475   63.5853   81.5255 H   0  0  0  0  0  0  0  0  0  0  0  0
    4.7191   63.9852   78.6592 H   0  0  0  0  0  0  0  0  0  0  0  0
    4.9993   64.7793   80.3041 H   0  0  0  0  0  0  0  0  0  0  0  0
    6.8902   63.6637   80.6854 H   0  0  0  0  0  0  0  0  0  0  0  0
    6.3075   62.1598   79.9014 H   0  0  0  0  0  0  0  0  0  0  0  0
    7.9596   64.0059   78.8652 H   0  0  0  0  0  0  0  0  0  0  0  0
  2  1  1  0
  3  2  1  0
  4  3  1  0
  5  4  1  0
  6  1  1  0
  6  5  1  0
  7  4  1  0
  8  7  2  0
  9  8  1  0
 10  9  2  0
 11 10  1  0
 12 11  2  0
 13 12  1  0
 14 13  2  0
 14  9  1  0
 15 14  1  0
 16 15  1  0
 17 16  2  0
 17  7  1  0
 18 17  1  0
 19 18  2  0
 20 19  1  0
 21 20  2  0
 21 16  1  0
 22  1  1  0
 23 22  1  0
 24 23  1  0
 25 24  1  0
 26 25  1  0
 27 26  1  0
  1 28  1  0
  2 29  1  0
  2 30  1  0
  3 31  1  0
  3 32  1  0
  5 33  1  0
  5 34  1  0
  6 35  1  0
  6 36  1  0
  8 37  1  0
 10 38  1  0
 11 39  1  0
 12 40  1  0
 13 41  1  0
 18 42  1  0
 19 43  1  0
 20 44  1  0
 21 45  1  0
 22 46  1  0
 22 47  1  0
 23 48  1  0
 23 49  1  0
 25 50  1  0
 25 51  1  0
 26 52  1  0
 26 53  1  0
 27 54  1  0
M  CHG  2   1   1   8   1
M  END
>  <score>  (2) 
-7.195

$$$$
=
     RDKit          3D

 54 57  0  0  0  0  0  0  0  0999 V2000
    1.0320   55.4890   75.6010 N   0  0  0  0  0  4  0  0  0  0  0  0
    2.2390   55.7620   74.7040 C   0  0  0  0  0  0  0  0  0  0  0  0
    1.8430   56.3600   73.3340 C   0  0  0  0  0  0  0  0  0  0  0  0
    1.1040   57.6510   73.5220 N   0  0  0  0  0  0  0  0  0  0  0  0
    0.1020   57.6720   74.6540 C   0  0  0  0  0  0  0  0  0  0  0  0
   -0.2220   56.2580   75.1860 C   0  0  0  0  0  0  0  0  0  0  0  0
    1.4540   58.7920   72.8710 C   0  0  0  0  0  0  0  0  0  0  0  0
    2.3370   58.7590   71.8730 N   0  0  0  0  0  4  0  0  0  0  0  0
    3.0740   59.8300   71.4150 C   0  0  0  0  0  0  0  0  0  0  0  0
    3.3980   59.8450   70.0500 C   0  0  0  0  0  0  0  0  0  0  0  0
    4.2100   60.8460   69.5130 C   0  0  0  0  0  0  0  0  0  0  0  0
    4.7370   61.8350   70.3380 C   0  0  0  0  0  0  0  0  0  0  0  0
    4.4600   61.8220   71.7040 C   0  0  0  0  0  0  0  0  0  0  0  0
    3.6390   60.8250   72.2500 C   0  0  0  0  0  0  0  0  0  0  0  0
    3.3890   60.8490   74.0330 S   0  0  0  0  0  0  0  0  0  0  0  0
    1.6230   61.0500   73.9650 C   0  0  0  0  0  0  0  0  0  0  0  0
    0.8520   60.0830   73.3060 C   0  0  0  0  0  0  0  0  0  0  0  0
   -0.5020   60.3610   73.0510 C   0  0  0  0  0  0  0  0  0  0  0  0
   -1.0860   61.5380   73.5200 C   0  0  0  0  0  0  0  0  0  0  0  0
   -0.3220   62.4590   74.2310 C   0  0  0  0  0  0  0  0  0  0  0  0
    1.0360   62.2230   74.4430 C   0  0  0  0  0  0  0  0  0  0  0  0
    0.7820   53.9750   75.7780 C   0  0  0  0  0  0  0  0  0  0  0  0
   -0.1600   53.4270   74.6980 C   0  0  0  0  0  0  0  0  0  0  0  0
   -0.8480   52.2420   75.0990 O   0  0  0  0  0  0  0  0  0  0  0  0
   -2.2800   52.3200   75.2050 C   0  0  0  0  0  0  0  0  0  0  0  0
   -2.8320   53.4910   76.0210 C   0  0  0  0  0  0  0  0  0  0  0  0
   -3.3380   54.4880   75.1240 O   0  0  0  0  0  0  0  0  0  0  0  0
    1.2726   55.8619   76.5305 H   0  0  0  0  0  0  0  0  0  0  0  0
    2.9057   56.4705   75.2175 H   0  0  0  0  0  0  0  0  0  0  0  0
    2.7359   54.7991   74.5144 H   0  0  0  0  0  0  0  0  0  0  0  0
    2.7520   56.5453   72.7429 H   0  0  0  0  0  0  0  0  0  0  0  0
    1.1897   55.6477   72.8088 H   0  0  0  0  0  0  0  0  0  0  0  0
    0.5139   58.2728   75.4782 H   0  0  0  0  0  0  0  0  0  0  0  0
   -0.8318   58.1040   74.2649 H   0  0  0  0  0  0  0  0  0  0  0  0
   -0.7373   55.6928   74.3954 H   0  0  0  0  0  0  0  0  0  0  0  0
   -0.8551   56.3727   76.0782 H   0  0  0  0  0  0  0  0  0  0  0  0
    2.4812   57.8540   71.4029 H   0  0  0  0  0  0  0  0  0  0  0  0
    3.0060   59.0554   69.3921 H   0  0  0  0  0  0  0  0  0  0  0  0
    4.4335   60.8528   68.4360 H   0  0  0  0  0  0  0  0  0  0  0  0
    5.3716   62.6263   69.9125 H   0  0  0  0  0  0  0  0  0  0  0  0
    4.8874   62.5974   72.3567 H   0  0  0  0  0  0  0  0  0  0  0  0
   -1.1067   59.6440   72.4764 H   0  0  0  0  0  0  0  0  0  0  0  0
   -2.1504   61.7382   73.3279 H   0  0  0  0  0  0  0  0  0  0  0  0
   -0.7895   63.3731   74.6257 H   0  0  0  0  0  0  0  0  0  0  0  0
    1.6444   62.9608   74.9866 H   0  0  0  0  0  0  0  0  0  0  0  0
    1.7437   53.4448   75.7150 H   0  0  0  0  0  0  0  0  0  0  0  0
    0.3092   53.8171   76.7586 H   0  0  0  0  0  0  0  0  0  0  0  0
   -0.9054   54.2000   74.4595 H   0  0  0  0  0  0  0  0  0  0  0  0
    0.4589   53.1662   73.8268 H   0  0  0  0  0  0  0  0  0  0  0  0
   -2.6886   52.3978   74.1867 H   0  0  0  0  0  0  0  0  0  0  0  0
   -2.5860   51.4126   75.7462 H   0  0  0  0  0  0  0  0  0  0  0  0
   -3.6435   53.1358   76.6732 H   0  0  0  0  0  0  0  0  0  0  0  0
   -2.0320   53.9212   76.6414 H   0  0  0  0  0  0  0  0  0  0  0  0
   -3.7188   55.2384   75.6455 H   0  0  0  0  0  0  0  0  0  0  0  0
  2  1  1  0
  3  2  1  0
  4  3  1  0
  5  4  1  0
  6  1  1  0
  6  5  1  0
  7  4  1  0
  8  7  2  0
  9  8  1  0
 10  9  2  0
 11 10  1  0
 12 11  2  0
 13 12  1  0
 14 13  2  0
 14  9  1  0
 15 14  1  0
 16 15  1  0
 17 16  2  0
 17  7  1  0
 18 17  1  0
 19 18  2  0
 20 19  1  0
 21 20  2  0
 21 16  1  0
 22  1  1  0
 23 22  1  0
 24 23  1  0
 25 24  1  0
 26 25  1  0
 27 26  1  0
  1 28  1  0
  2 29  1  0
  2 30  1  0
  3 31  1  0
  3 32  1  0
  5 33  1  0
  5 34  1  0
  6 35  1  0
  6 36  1  0
  8 37  1  0
 10 38  1  0
 11 39  1  0
 12 40  1  0
 13 41  1  0
 18 42  1  0
 19 43  1  0
 20 44  1  0
 21 45  1  0
 22 46  1  0
 22 47  1  0
 23 48  1  0
 23 49  1  0
 25 50  1  0
 25 51  1  0
 26 52  1  0
 26 53  1  0
 27 54  1  0
M  CHG  2   1   1   8   1
M  END
>  <score>  (3) 
-7.101

$$$$
=
     RDKit          3D

 54 57  0  0  0  0  0  0  0  0999 V2000
    2.0930   57.1170   77.3680 N   0  0  0  0  0  4  0  0  0  0  0  0
    3.1840   57.1650   76.2990 C   0  0  0  0  0  0  0  0  0  0  0  0
    2.6210   57.0350   74.8640 C   0  0  0  0  0  0  0  0  0  0  0  0
    1.6470   58.1400   74.5830 N   0  0  0  0  0  0  0  0  0  0  0  0
    0.7080   58.4870   75.7160 C   0  0  0  0  0  0  0  0  0  0  0  0
    0.6950   57.4140   76.8270 C   0  0  0  0  0  0  0  0  0  0  0  0
    1.7360   58.9240   73.4770 C   0  0  0  0  0  0  0  0  0  0  0  0
    2.5660   58.6050   72.4840 N   0  0  0  0  0  4  0  0  0  0  0  0
    3.0550   59.4740   71.5330 C   0  0  0  0  0  0  0  0  0  0  0  0
    3.3140   58.9470   70.2590 C   0  0  0  0  0  0  0  0  0  0  0  0
    3.8870   59.7320   69.2560 C   0  0  0  0  0  0  0  0  0  0  0  0
    4.2390   61.0520   69.5200 C   0  0  0  0  0  0  0  0  0  0  0  0
    4.0260   61.5890   70.7880 C   0  0  0  0  0  0  0  0  0  0  0  0
    3.4430   60.8100   71.7980 C   0  0  0  0  0  0  0  0  0  0  0  0
    3.2670   61.5660   73.4220 S   0  0  0  0  0  0  0  0  0  0  0  0
    1.4950   61.4270   73.4940 C   0  0  0  0  0  0  0  0  0  0  0  0
    0.9070   60.1590   73.4010 C   0  0  0  0  0  0  0  0  0  0  0  0
   -0.4850   60.0740   73.2220 C   0  0  0  0  0  0  0  0  0  0  0  0
   -1.2730   61.2260   73.2220 C   0  0  0  0  0  0  0  0  0  0  0  0
   -0.6790   62.4750   73.3820 C   0  0  0  0  0  0  0  0  0  0  0  0
    0.7050   62.5790   73.5050 C   0  0  0  0  0  0  0  0  0  0  0  0
    2.1580   55.8120   78.1930 C   0  0  0  0  0  0  0  0  0  0  0  0
    1.0980   54.8010   77.7350 C   0  0  0  0  0  0  0  0  0  0  0  0
    1.4710   54.0890   76.5550 O   0  0  0  0  0  0  0  0  0  0  0  0
    0.4260   53.7930   75.6120 C   0  0  0  0  0  0  0  0  0  0  0  0
    0.8330   53.7830   74.1370 C   0  0  0  0  0  0  0  0  0  0  0  0
    2.2600   53.7000   74.0470 O   0  0  0  0  0  0  0  0  0  0  0  0
    2.2917   57.8909   78.0180 H   0  0  0  0  0  0  0  0  0  0  0  0
    3.7163   58.1240   76.3825 H   0  0  0  0  0  0  0  0  0  0  0  0
    3.8550   56.3105   76.4710 H   0  0  0  0  0  0  0  0  0  0  0  0
    3.4499   57.0903   74.1430 H   0  0  0  0  0  0  0  0  0  0  0  0
    2.1024   56.0695   74.7701 H   0  0  0  0  0  0  0  0  0  0  0  0
    1.0244   59.4447   76.1550 H   0  0  0  0  0  0  0  0  0  0  0  0
   -0.3083   58.5474   75.2995 H   0  0  0  0  0  0  0  0  0  0  0  0
    0.2708   56.4858   76.4165 H   0  0  0  0  0  0  0  0  0  0  0  0
    0.0890   57.8012   77.6594 H   0  0  0  0  0  0  0  0  0  0  0  0
    2.8685   57.6224   72.4221 H   0  0  0  0  0  0  0  0  0  0  0  0
    3.0615   57.8977   70.0464 H   0  0  0  0  0  0  0  0  0  0  0  0
    4.0602   59.3064   68.2566 H   0  0  0  0  0  0  0  0  0  0  0  0
    4.6853   61.6714   68.7280 H   0  0  0  0  0  0  0  0  0  0  0  0
    4.3165   62.6290   70.9978 H   0  0  0  0  0  0  0  0  0  0  0  0
   -0.9573   59.0906   73.0807 H   0  0  0  0  0  0  0  0  0  0  0  0
   -2.3629   61.1471   73.0956 H   0  0  0  0  0  0  0  0  0  0  0  0
   -1.3029   63.3805   73.4113 H   0  0  0  0  0  0  0  0  0  0  0  0
    1.1753   63.5678   73.6107 H   0  0  0  0  0  0  0  0  0  0  0  0
    3.1550   55.3630   78.0730 H   0  0  0  0  0  0  0  0  0  0  0  0
    1.9636   56.0609   79.2467 H   0  0  0  0  0  0  0  0  0  0  0  0
    0.9353   54.0744   78.5447 H   0  0  0  0  0  0  0  0  0  0  0  0
    0.1859   55.3688   77.4990 H   0  0  0  0  0  0  0  0  0  0  0  0
    0.0245   52.7985   75.8566 H   0  0  0  0  0  0  0  0  0  0  0  0
   -0.3024   54.6112   75.7119 H   0  0  0  0  0  0  0  0  0  0  0  0
    0.3808   52.9146   73.6356 H   0  0  0  0  0  0  0  0  0  0  0  0
    0.4831   54.7046   73.6489 H   0  0  0  0  0  0  0  0  0  0  0  0
    2.6473   53.6775   74.9578 H   0  0  0  0  0  0  0  0  0  0  0  0
  2  1  1  0
  3  2  1  0
  4  3  1  0
  5  4  1  0
  6  1  1  0
  6  5  1  0
  7  4  1  0
  8  7  2  0
  9  8  1  0
 10  9  2  0
 11 10  1  0
 12 11  2  0
 13 12  1  0
 14 13  2  0
 14  9  1  0
 15 14  1  0
 16 15  1  0
 17 16  2  0
 17  7  1  0
 18 17  1  0
 19 18  2  0
 20 19  1  0
 21 20  2  0
 21 16  1  0
 22  1  1  0
 23 22  1  0
 24 23  1  0
 25 24  1  0
 26 25  1  0
 27 26  1  0
  1 28  1  0
  2 29  1  0
  2 30  1  0
  3 31  1  0
  3 32  1  0
  5 33  1  0
  5 34  1  0
  6 35  1  0
  6 36  1  0
  8 37  1  0
 10 38  1  0
 11 39  1  0
 12 40  1  0
 13 41  1  0
 18 42  1  0
 19 43  1  0
 20 44  1  0
 21 45  1  0
 22 46  1  0
 22 47  1  0
 23 48  1  0
 23 49  1  0
 25 50  1  0
 25 51  1  0
 26 52  1  0
 26 53  1  0
 27 54  1  0
M  CHG  2   1   1   8   1
M  END
>  <score>  (4) 
-7.029

$$$$
=
     RDKit          3D

 54 57  0  0  0  0  0  0  0  0999 V2000
    3.5640   61.5380   71.2320 N   0  0  0  0  0  4  0  0  0  0  0  0
    3.0020   60.1840   70.8020 C   0  0  0  0  0  0  0  0  0  0  0  0
    3.5480   59.0120   71.6500 C   0  0  0  0  0  0  0  0  0  0  0  0
    3.2120   59.2140   73.0980 N   0  0  0  0  0  0  0  0  0  0  0  0
    3.3590   60.6290   73.6110 C   0  0  0  0  0  0  0  0  0  0  0  0
    4.1540   61.5330   72.6420 C   0  0  0  0  0  0  0  0  0  0  0  0
    2.6130   58.2520   73.8470 C   0  0  0  0  0  0  0  0  0  0  0  0
    2.4920   57.0080   73.3830 N   0  0  0  0  0  4  0  0  0  0  0  0
    1.5840   56.0700   73.8230 C   0  0  0  0  0  0  0  0  0  0  0  0
    1.9810   54.7250   73.7740 C   0  0  0  0  0  0  0  0  0  0  0  0
    1.0980   53.7000   74.1220 C   0  0  0  0  0  0  0  0  0  0  0  0
   -0.2070   54.0010   74.4970 C   0  0  0  0  0  0  0  0  0  0  0  0
   -0.6380   55.3260   74.5190 C   0  0  0  0  0  0  0  0  0  0  0  0
    0.2450   56.3620   74.1800 C   0  0  0  0  0  0  0  0  0  0  0  0
   -0.4160   58.0370   74.1730 S   0  0  0  0  0  0  0  0  0  0  0  0
    0.6910   58.6720   75.4130 C   0  0  0  0  0  0  0  0  0  0  0  0
    2.0720   58.6150   75.1860 C   0  0  0  0  0  0  0  0  0  0  0  0
    2.9420   58.8970   76.2550 C   0  0  0  0  0  0  0  0  0  0  0  0
    2.4390   59.3070   77.4900 C   0  0  0  0  0  0  0  0  0  0  0  0
    1.0650   59.4220   77.6790 C   0  0  0  0  0  0  0  0  0  0  0  0
    0.1880   59.0920   76.6460 C   0  0  0  0  0  0  0  0  0  0  0  0
    4.5290   62.1180   70.1750 C   0  0  0  0  0  0  0  0  0  0  0  0
    3.8070   63.0740   69.2150 C   0  0  0  0  0  0  0  0  0  0  0  0
    2.4270   63.2530   69.5300 O   0  0  0  0  0  0  0  0  0  0  0  0
    2.0750   64.4280   70.2820 C   0  0  0  0  0  0  0  0  0  0  0  0
    0.9140   64.2740   71.2680 C   0  0  0  0  0  0  0  0  0  0  0  0
    0.9760   62.9720   71.8630 O   0  0  0  0  0  0  0  0  0  0  0  0
    2.7605   62.1802   71.2863 H   0  0  0  0  0  0  0  0  0  0  0  0
    1.9069   60.2101   70.9024 H   0  0  0  0  0  0  0  0  0  0  0  0
    3.3124   60.0122   69.7608 H   0  0  0  0  0  0  0  0  0  0  0  0
    3.0973   58.0712   71.3010 H   0  0  0  0  0  0  0  0  0  0  0  0
    4.6417   58.9706   71.5396 H   0  0  0  0  0  0  0  0  0  0  0  0
    2.3562   61.0589   73.7511 H   0  0  0  0  0  0  0  0  0  0  0  0
    3.9170   60.5838   74.5579 H   0  0  0  0  0  0  0  0  0  0  0  0
    5.1907   61.1689   72.5897 H   0  0  0  0  0  0  0  0  0  0  0  0
    4.1067   62.5617   73.0286 H   0  0  0  0  0  0  0  0  0  0  0  0
    3.1338   56.7232   72.6294 H   0  0  0  0  0  0  0  0  0  0  0  0
    3.0038   54.4738   73.4565 H   0  0  0  0  0  0  0  0  0  0  0  0
    1.4354   52.6533   74.0994 H   0  0  0  0  0  0  0  0  0  0  0  0
   -0.8991   53.1929   74.7763 H   0  0  0  0  0  0  0  0  0  0  0  0
   -1.6745   55.5604   74.8032 H   0  0  0  0  0  0  0  0  0  0  0  0
    4.0282   58.7933   76.1159 H   0  0  0  0  0  0  0  0  0  0  0  0
    3.1287   59.5395   78.3148 H   0  0  0  0  0  0  0  0  0  0  0  0
    0.6704   59.7734   78.6438 H   0  0  0  0  0  0  0  0  0  0  0  0
   -0.8985   59.1625   76.8024 H   0  0  0  0  0  0  0  0  0  0  0  0
    5.3325   62.6668   70.6881 H   0  0  0  0  0  0  0  0  0  0  0  0
    4.9372   61.2830   69.5867 H   0  0  0  0  0  0  0  0  0  0  0  0
    4.3050   64.0539   69.2577 H   0  0  0  0  0  0  0  0  0  0  0  0
    3.8572   62.6275   68.2110 H   0  0  0  0  0  0  0  0  0  0  0  0
    2.9619   64.7396   70.8532 H   0  0  0  0  0  0  0  0  0  0  0  0
    1.7354   65.1639   69.5383 H   0  0  0  0  0  0  0  0  0  0  0  0
    0.9918   65.0417   72.0520 H   0  0  0  0  0  0  0  0  0  0  0  0
   -0.0421   64.3948   70.7376 H   0  0  0  0  0  0  0  0  0  0  0  0
    0.9718   63.0593   72.8491 H   0  0  0  0  0  0  0  0  0  0  0  0
  2  1  1  0
  3  2  1  0
  4  3  1  0
  5  4  1  0
  6  1  1  0
  6  5  1  0
  7  4  1  0
  8  7  2  0
  9  8  1  0
 10  9  2  0
 11 10  1  0
 12 11  2  0
 13 12  1  0
 14 13  2  0
 14  9  1  0
 15 14  1  0
 16 15  1  0
 17 16  2  0
 17  7  1  0
 18 17  1  0
 19 18  2  0
 20 19  1  0
 21 20  2  0
 21 16  1  0
 22  1  1  0
 23 22  1  0
 24 23  1  0
 25 24  1  0
 26 25  1  0
 27 26  1  0
  1 28  1  0
  2 29  1  0
  2 30  1  0
  3 31  1  0
  3 32  1  0
  5 33  1  0
  5 34  1  0
  6 35  1  0
  6 36  1  0
  8 37  1  0
 10 38  1  0
 11 39  1  0
 12 40  1  0
 13 41  1  0
 18 42  1  0
 19 43  1  0
 20 44  1  0
 21 45  1  0
 22 46  1  0
 22 47  1  0
 23 48  1  0
 23 49  1  0
 25 50  1  0
 25 51  1  0
 26 52  1  0
 26 53  1  0
 27 54  1  0
M  CHG  2   1   1   8   1
M  END
>  <score>  (5) 
-6.979

$$$$
=
     RDKit          3D

 54 57  0  0  0  0  0  0  0  0999 V2000
    4.4420   60.2710   72.4740 N   0  0  0  0  0  4  0  0  0  0  0  0
    3.3740   61.2510   72.9580 C   0  0  0  0  0  0  0  0  0  0  0  0
    1.9650   60.9170   72.4140 C   0  0  0  0  0  0  0  0  0  0  0  0
    1.5550   59.5390   72.8370 N   0  0  0  0  0  0  0  0  0  0  0  0
    2.6380   58.4860   72.7740 C   0  0  0  0  0  0  0  0  0  0  0  0
    3.8690   58.9480   71.9630 C   0  0  0  0  0  0  0  0  0  0  0  0
    0.3630   59.2870   73.4400 C   0  0  0  0  0  0  0  0  0  0  0  0
   -0.5850   60.2230   73.4860 N   0  0  0  0  0  4  0  0  0  0  0  0
   -1.6330   60.2640   74.3790 C   0  0  0  0  0  0  0  0  0  0  0  0
   -2.8350   60.8290   73.9290 C   0  0  0  0  0  0  0  0  0  0  0  0
   -3.9240   60.9880   74.7890 C   0  0  0  0  0  0  0  0  0  0  0  0
   -3.8200   60.6100   76.1240 C   0  0  0  0  0  0  0  0  0  0  0  0
   -2.6240   60.0800   76.6060 C   0  0  0  0  0  0  0  0  0  0  0  0
   -1.5290   59.9090   75.7470 C   0  0  0  0  0  0  0  0  0  0  0  0
   -0.0060   59.2790   76.4710 S   0  0  0  0  0  0  0  0  0  0  0  0
    0.0820   57.8180   75.4610 C   0  0  0  0  0  0  0  0  0  0  0  0
    0.1410   57.9550   74.0670 C   0  0  0  0  0  0  0  0  0  0  0  0
   -0.0270   56.8090   73.2700 C   0  0  0  0  0  0  0  0  0  0  0  0
   -0.1630   55.5500   73.8560 C   0  0  0  0  0  0  0  0  0  0  0  0
   -0.1540   55.4230   75.2430 C   0  0  0  0  0  0  0  0  0  0  0  0
   -0.0440   56.5560   76.0470 C   0  0  0  0  0  0  0  0  0  0  0  0
    5.4150   60.9340   71.4750 C   0  0  0  0  0  0  0  0  0  0  0  0
    4.9230   62.3210   71.0410 C   0  0  0  0  0  0  0  0  0  0  0  0
    4.3760   62.3380   69.7220 O   0  0  0  0  0  0  0  0  0  0  0  0
    3.0710   62.9190   69.5620 C   0  0  0  0  0  0  0  0  0  0  0  0
    2.7130   64.0480   70.5300 C   0  0  0  0  0  0  0  0  0  0  0  0
    1.8580   64.9840   69.8620 O   0  0  0  0  0  0  0  0  0  0  0  0
    4.9957   60.0140   73.3036 H   0  0  0  0  0  0  0  0  0  0  0  0
    3.3425   61.2222   74.0572 H   0  0  0  0  0  0  0  0  0  0  0  0
    3.6459   62.2492   72.5842 H   0  0  0  0  0  0  0  0  0  0  0  0
    1.2422   61.6470   72.8073 H   0  0  0  0  0  0  0  0  0  0  0  0
    1.9870   60.9613   71.3151 H   0  0  0  0  0  0  0  0  0  0  0  0
    2.9598   58.2497   73.7990 H   0  0  0  0  0  0  0  0  0  0  0  0
    2.2170   57.6048   72.2678 H   0  0  0  0  0  0  0  0  0  0  0  0
    3.5718   59.0746   70.9115 H   0  0  0  0  0  0  0  0  0  0  0  0
    4.6494   58.1805   72.0722 H   0  0  0  0  0  0  0  0  0  0  0  0
   -0.5289   60.9826   72.7926 H   0  0  0  0  0  0  0  0  0  0  0  0
   -2.9217   61.1524   72.8812 H   0  0  0  0  0  0  0  0  0  0  0  0
   -4.8654   61.4127   74.4103 H   0  0  0  0  0  0  0  0  0  0  0  0
   -4.6807   60.7292   76.7985 H   0  0  0  0  0  0  0  0  0  0  0  0
   -2.5390   59.7947   77.6649 H   0  0  0  0  0  0  0  0  0  0  0  0
   -0.0514   56.9058   72.1745 H   0  0  0  0  0  0  0  0  0  0  0  0
   -0.2773   54.6579   73.2227 H   0  0  0  0  0  0  0  0  0  0  0  0
   -0.2338   54.4275   75.7042 H   0  0  0  0  0  0  0  0  0  0  0  0
   -0.0564   56.4567   77.1424 H   0  0  0  0  0  0  0  0  0  0  0  0
    6.4004   61.0384   71.9527 H   0  0  0  0  0  0  0  0  0  0  0  0
    5.4766   60.2962   70.5809 H   0  0  0  0  0  0  0  0  0  0  0  0
    4.1461   62.6524   71.7457 H   0  0  0  0  0  0  0  0  0  0  0  0
    5.7951   62.9914   71.0412 H   0  0  0  0  0  0  0  0  0  0  0  0
    3.0046   63.3194   68.5396 H   0  0  0  0  0  0  0  0  0  0  0  0
    2.3588   62.1088   69.7772 H   0  0  0  0  0  0  0  0  0  0  0  0
    2.1917   63.6319   71.4047 H   0  0  0  0  0  0  0  0  0  0  0  0
    3.6302   64.5557   70.8631 H   0  0  0  0  0  0  0  0  0  0  0  0
    1.3676   65.5208   70.5339 H   0  0  0  0  0  0  0  0  0  0  0  0
  2  1  1  0
  3  2  1  0
  4  3  1  0
  5  4  1  0
  6  1  1  0
  6  5  1  0
  7  4  1  0
  8  7  2  0
  9  8  1  0
 10  9  2  0
 11 10  1  0
 12 11  2  0
 13 12  1  0
 14 13  2  0
 14  9  1  0
 15 14  1  0
 16 15  1  0
 17 16  2  0
 17  7  1  0
 18 17  1  0
 19 18  2  0
 20 19  1  0
 21 20  2  0
 21 16  1  0
 22  1  1  0
 23 22  1  0
 24 23  1  0
 25 24  1  0
 26 25  1  0
 27 26  1  0
  1 28  1  0
  2 29  1  0
  2 30  1  0
  3 31  1  0
  3 32  1  0
  5 33  1  0
  5 34  1  0
  6 35  1  0
  6 36  1  0
  8 37  1  0
 10 38  1  0
 11 39  1  0
 12 40  1  0
 13 41  1  0
 18 42  1  0
 19 43  1  0
 20 44  1  0
 21 45  1  0
 22 46  1  0
 22 47  1  0
 23 48  1  0
 23 49  1  0
 25 50  1  0
 25 51  1  0
 26 52  1  0
 26 53  1  0
 27 54  1  0
M  CHG  2   1   1   8   1
M  END
>  <score>  (6) 
-6.967

$$$$
=
     RDKit          3D

 54 57  0  0  0  0  0  0  0  0999 V2000
    4.3160   60.9920   70.9170 N   0  0  0  0  0  4  0  0  0  0  0  0
    4.7410   61.4160   72.3220 C   0  0  0  0  0  0  0  0  0  0  0  0
    3.5400   61.6180   73.2750 C   0  0  0  0  0  0  0  0  0  0  0  0
    2.7470   60.3510   73.3920 N   0  0  0  0  0  0  0  0  0  0  0  0
    2.5470   59.5840   72.1050 C   0  0  0  0  0  0  0  0  0  0  0  0
    2.9000   60.4190   70.8550 C   0  0  0  0  0  0  0  0  0  0  0  0
    2.4140   59.8100   74.5940 C   0  0  0  0  0  0  0  0  0  0  0  0
    2.5940   60.4980   75.7210 N   0  0  0  0  0  4  0  0  0  0  0  0
    2.6930   59.9610   76.9850 C   0  0  0  0  0  0  0  0  0  0  0  0
    2.2110   60.7370   78.0500 C   0  0  0  0  0  0  0  0  0  0  0  0
    2.3450   60.3100   79.3730 C   0  0  0  0  0  0  0  0  0  0  0  0
    2.9890   59.1100   79.6560 C   0  0  0  0  0  0  0  0  0  0  0  0
    3.5100   58.3370   78.6190 C   0  0  0  0  0  0  0  0  0  0  0  0
    3.3720   58.7550   77.2880 C   0  0  0  0  0  0  0  0  0  0  0  0
    4.1320   57.7280   76.0200 S   0  0  0  0  0  0  0  0  0  0  0  0
    2.6230   57.3670   75.1520 C   0  0  0  0  0  0  0  0  0  0  0  0
    1.8660   58.4260   74.6330 C   0  0  0  0  0  0  0  0  0  0  0  0
    0.5690   58.1580   74.1590 C   0  0  0  0  0  0  0  0  0  0  0  0
    0.0800   56.8520   74.1280 C   0  0  0  0  0  0  0  0  0  0  0  0
    0.8710   55.8020   74.5870 C   0  0  0  0  0  0  0  0  0  0  0  0
    2.1370   56.0580   75.1110 C   0  0  0  0  0  0  0  0  0  0  0  0
    4.5590   62.1150   69.8830 C   0  0  0  0  0  0  0  0  0  0  0  0
    3.3320   62.3370   68.9900 C   0  0  0  0  0  0  0  0  0  0  0  0
    2.7460   63.6290   69.1490 O   0  0  0  0  0  0  0  0  0  0  0  0
    2.5510   64.0980   70.4950 C   0  0  0  0  0  0  0  0  0  0  0  0
    1.1000   64.1990   70.9700 C   0  0  0  0  0  0  0  0  0  0  0  0
    0.3140   64.8140   69.9420 O   0  0  0  0  0  0  0  0  0  0  0  0
    4.9287   60.2066   70.6548 H   0  0  0  0  0  0  0  0  0  0  0  0
    5.3955   60.6377   72.7413 H   0  0  0  0  0  0  0  0  0  0  0  0
    5.2606   62.3816   72.2340 H   0  0  0  0  0  0  0  0  0  0  0  0
    3.9110   61.9066   74.2695 H   0  0  0  0  0  0  0  0  0  0  0  0
    2.8916   62.4087   72.8694 H   0  0  0  0  0  0  0  0  0  0  0  0
    3.1881   58.6903   72.1242 H   0  0  0  0  0  0  0  0  0  0  0  0
    1.4818   59.3179   72.0379 H   0  0  0  0  0  0  0  0  0  0  0  0
    2.1855   61.2513   70.7730 H   0  0  0  0  0  0  0  0  0  0  0  0
    2.8458   59.7533   69.9810 H   0  0  0  0  0  0  0  0  0  0  0  0
    2.6654   61.5223   75.6393 H   0  0  0  0  0  0  0  0  0  0  0  0
    1.7192   61.6981   77.8393 H   0  0  0  0  0  0  0  0  0  0  0  0
    1.9409   60.9232   80.1919 H   0  0  0  0  0  0  0  0  0  0  0  0
    3.0873   58.7709   80.6978 H   0  0  0  0  0  0  0  0  0  0  0  0
    4.0314   57.3954   78.8462 H   0  0  0  0  0  0  0  0  0  0  0  0
   -0.0654   58.9859   73.8096 H   0  0  0  0  0  0  0  0  0  0  0  0
   -0.9300   56.6517   73.7411 H   0  0  0  0  0  0  0  0  0  0  0  0
    0.4963   54.7691   74.5360 H   0  0  0  0  0  0  0  0  0  0  0  0
    2.7529   55.2300   75.4919 H   0  0  0  0  0  0  0  0  0  0  0  0
    4.7849   63.0494   70.4176 H   0  0  0  0  0  0  0  0  0  0  0  0
    5.4009   61.8152   69.2417 H   0  0  0  0  0  0  0  0  0  0  0  0
    3.6380   62.2189   67.9400 H   0  0  0  0  0  0  0  0  0  0  0  0
    2.5745   61.5963   69.2859 H   0  0  0  0  0  0  0  0  0  0  0  0
    3.0784   63.4086   71.1707 H   0  0  0  0  0  0  0  0  0  0  0  0
    2.9380   65.1276   70.5077 H   0  0  0  0  0  0  0  0  0  0  0  0
    0.7098   63.1922   71.1799 H   0  0  0  0  0  0  0  0  0  0  0  0
    1.0507   64.8040   71.8874 H   0  0  0  0  0  0  0  0  0  0  0  0
   -0.3945   65.3683   70.3554 H   0  0  0  0  0  0  0  0  0  0  0  0
  2  1  1  0
  3  2  1  0
  4  3  1  0
  5  4  1  0
  6  1  1  0
  6  5  1  0
  7  4  1  0
  8  7  2  0
  9  8  1  0
 10  9  2  0
 11 10  1  0
 12 11  2  0
 13 12  1  0
 14 13  2  0
 14  9  1  0
 15 14  1  0
 16 15  1  0
 17 16  2  0
 17  7  1  0
 18 17  1  0
 19 18  2  0
 20 19  1  0
 21 20  2  0
 21 16  1  0
 22  1  1  0
 23 22  1  0
 24 23  1  0
 25 24  1  0
 26 25  1  0
 27 26  1  0
  1 28  1  0
  2 29  1  0
  2 30  1  0
  3 31  1  0
  3 32  1  0
  5 33  1  0
  5 34  1  0
  6 35  1  0
  6 36  1  0
  8 37  1  0
 10 38  1  0
 11 39  1  0
 12 40  1  0
 13 41  1  0
 18 42  1  0
 19 43  1  0
 20 44  1  0
 21 45  1  0
 22 46  1  0
 22 47  1  0
 23 48  1  0
 23 49  1  0
 25 50  1  0
 25 51  1  0
 26 52  1  0
 26 53  1  0
 27 54  1  0
M  CHG  2   1   1   8   1
M  END
>  <score>  (7) 
-6.727

$$$$
=
     RDKit          3D

 54 57  0  0  0  0  0  0  0  0999 V2000
    1.8120   61.2920   73.1890 N   0  0  0  0  0  4  0  0  0  0  0  0
    0.8750   60.1280   72.8660 C   0  0  0  0  0  0  0  0  0  0  0  0
    1.6190   58.7780   72.7410 C   0  0  0  0  0  0  0  0  0  0  0  0
    2.3360   58.4560   74.0180 N   0  0  0  0  0  0  0  0  0  0  0  0
    3.0270   59.6200   74.6910 C   0  0  0  0  0  0  0  0  0  0  0  0
    3.1570   60.8500   73.7650 C   0  0  0  0  0  0  0  0  0  0  0  0
    2.1990   57.2600   74.6470 C   0  0  0  0  0  0  0  0  0  0  0  0
    1.5900   56.2410   74.0410 N   0  0  0  0  0  4  0  0  0  0  0  0
    1.0300   55.1500   74.6690 C   0  0  0  0  0  0  0  0  0  0  0  0
    1.0540   53.9300   73.9750 C   0  0  0  0  0  0  0  0  0  0  0  0
    0.4370   52.7910   74.4970 C   0  0  0  0  0  0  0  0  0  0  0  0
   -0.2400   52.8580   75.7100 C   0  0  0  0  0  0  0  0  0  0  0  0
   -0.3110   54.0670   76.4020 C   0  0  0  0  0  0  0  0  0  0  0  0
    0.3130   55.2130   75.8890 C   0  0  0  0  0  0  0  0  0  0  0  0
    0.1140   56.7430   76.8170 S   0  0  0  0  0  0  0  0  0  0  0  0
    1.8480   56.9940   77.1230 C   0  0  0  0  0  0  0  0  0  0  0  0
    2.7220   57.1110   76.0330 C   0  0  0  0  0  0  0  0  0  0  0  0
    4.1070   57.0730   76.2740 C   0  0  0  0  0  0  0  0  0  0  0  0
    4.5990   57.0070   77.5780 C   0  0  0  0  0  0  0  0  0  0  0  0
    3.7170   56.9580   78.6540 C   0  0  0  0  0  0  0  0  0  0  0  0
    2.3420   56.9380   78.4280 C   0  0  0  0  0  0  0  0  0  0  0  0
    1.9540   62.2590   71.9930 C   0  0  0  0  0  0  0  0  0  0  0  0
    3.4270   62.5260   71.6540 C   0  0  0  0  0  0  0  0  0  0  0  0
    3.8330   61.9490   70.4130 O   0  0  0  0  0  0  0  0  0  0  0  0
    4.2480   60.5720   70.4360 C   0  0  0  0  0  0  0  0  0  0  0  0
    3.4400   59.6100   69.5630 C   0  0  0  0  0  0  0  0  0  0  0  0
    3.8650   58.2680   69.8300 O   0  0  0  0  0  0  0  0  0  0  0  0
    1.3635   61.8224   73.9496 H   0  0  0  0  0  0  0  0  0  0  0  0
    0.1279   60.0447   73.6691 H   0  0  0  0  0  0  0  0  0  0  0  0
    0.4063   60.3396   71.8936 H   0  0  0  0  0  0  0  0  0  0  0  0
    0.8916   57.9821   72.5231 H   0  0  0  0  0  0  0  0  0  0  0  0
    2.3552   58.8504   71.9269 H   0  0  0  0  0  0  0  0  0  0  0  0
    2.4467   59.9081   75.5800 H   0  0  0  0  0  0  0  0  0  0  0  0
    4.0435   59.2950   74.9578 H   0  0  0  0  0  0  0  0  0  0  0  0
    3.8309   60.5962   72.9335 H   0  0  0  0  0  0  0  0  0  0  0  0
    3.5532   61.6815   74.3664 H   0  0  0  0  0  0  0  0  0  0  0  0
    1.5330   56.2719   73.0130 H   0  0  0  0  0  0  0  0  0  0  0  0
    1.5673   53.8701   73.0039 H   0  0  0  0  0  0  0  0  0  0  0  0
    0.4866   51.8392   73.9478 H   0  0  0  0  0  0  0  0  0  0  0  0
   -0.7191   51.9582   76.1234 H   0  0  0  0  0  0  0  0  0  0  0  0
   -0.8589   54.1216   77.3543 H   0  0  0  0  0  0  0  0  0  0  0  0
    4.8086   57.0955   75.4271 H   0  0  0  0  0  0  0  0  0  0  0  0
    5.6844   56.9937   77.7559 H   0  0  0  0  0  0  0  0  0  0  0  0
    4.1055   56.9351   79.6828 H   0  0  0  0  0  0  0  0  0  0  0  0
    1.6458   56.8781   79.2775 H   0  0  0  0  0  0  0  0  0  0  0  0
    1.4603   61.8162   71.1154 H   0  0  0  0  0  0  0  0  0  0  0  0
    1.4851   63.2157   72.2665 H   0  0  0  0  0  0  0  0  0  0  0  0
    3.5817   63.6138   71.6008 H   0  0  0  0  0  0  0  0  0  0  0  0
    4.0335   62.0600   72.4446 H   0  0  0  0  0  0  0  0  0  0  0  0
    5.2949   60.5310   70.1008 H   0  0  0  0  0  0  0  0  0  0  0  0
    4.0912   60.2338   71.4709 H   0  0  0  0  0  0  0  0  0  0  0  0
    2.3697   59.7111   69.7961 H   0  0  0  0  0  0  0  0  0  0  0  0
    3.6024   59.8467   68.5011 H   0  0  0  0  0  0  0  0  0  0  0  0
    3.9104   58.1247   70.8085 H   0  0  0  0  0  0  0  0  0  0  0  0
  2  1  1  0
  3  2  1  0
  4  3  1  0
  5  4  1  0
  6  1  1  0
  6  5  1  0
  7  4  1  0
  8  7  2  0
  9  8  1  0
 10  9  2  0
 11 10  1  0
 12 11  2  0
 13 12  1  0
 14 13  2  0
 14  9  1  0
 15 14  1  0
 16 15  1  0
 17 16  2  0
 17  7  1  0
 18 17  1  0
 19 18  2  0
 20 19  1  0
 21 20  2  0
 21 16  1  0
 22  1  1  0
 23 22  1  0
 24 23  1  0
 25 24  1  0
 26 25  1  0
 27 26  1  0
  1 28  1  0
  2 29  1  0
  2 30  1  0
  3 31  1  0
  3 32  1  0
  5 33  1  0
  5 34  1  0
  6 35  1  0
  6 36  1  0
  8 37  1  0
 10 38  1  0
 11 39  1  0
 12 40  1  0
 13 41  1  0
 18 42  1  0
 19 43  1  0
 20 44  1  0
 21 45  1  0
 22 46  1  0
 22 47  1  0
 23 48  1  0
 23 49  1  0
 25 50  1  0
 25 51  1  0
 26 52  1  0
 26 53  1  0
 27 54  1  0
M  CHG  2   1   1   8   1
M  END
>  <score>  (8) 
-6.691

$$$$
=
     RDKit          3D

 54 57  0  0  0  0  0  0  0  0999 V2000
    1.3750   63.2490   70.9810 N   0  0  0  0  0  4  0  0  0  0  0  0
    2.5770   62.8060   71.8120 C   0  0  0  0  0  0  0  0  0  0  0  0
    2.2850   62.7990   73.3310 C   0  0  0  0  0  0  0  0  0  0  0  0
    1.1440   61.8770   73.6390 N   0  0  0  0  0  0  0  0  0  0  0  0
   -0.0120   61.9190   72.6650 C   0  0  0  0  0  0  0  0  0  0  0  0
    0.0450   63.1460   71.7280 C   0  0  0  0  0  0  0  0  0  0  0  0
    1.2230   60.9140   74.5950 C   0  0  0  0  0  0  0  0  0  0  0  0
    2.2460   60.8900   75.4490 N   0  0  0  0  0  4  0  0  0  0  0  0
    2.6680   59.7930   76.1680 C   0  0  0  0  0  0  0  0  0  0  0  0
    3.2310   60.0350   77.4310 C   0  0  0  0  0  0  0  0  0  0  0  0
    3.7610   58.9930   78.1960 C   0  0  0  0  0  0  0  0  0  0  0  0
    3.7630   57.6940   77.6980 C   0  0  0  0  0  0  0  0  0  0  0  0
    3.2440   57.4330   76.4310 C   0  0  0  0  0  0  0  0  0  0  0  0
    2.7020   58.4710   75.6610 C   0  0  0  0  0  0  0  0  0  0  0  0
    2.1140   58.0520   74.0120 S   0  0  0  0  0  0  0  0  0  0  0  0
    0.4290   58.5480   74.2900 C   0  0  0  0  0  0  0  0  0  0  0  0
    0.1610   59.8730   74.6590 C   0  0  0  0  0  0  0  0  0  0  0  0
   -1.1330   60.1990   75.1040 C   0  0  0  0  0  0  0  0  0  0  0  0
   -2.1490   59.2430   75.0960 C   0  0  0  0  0  0  0  0  0  0  0  0
   -1.8810   57.9470   74.6650 C   0  0  0  0  0  0  0  0  0  0  0  0
   -0.5910   57.5940   74.2730 C   0  0  0  0  0  0  0  0  0  0  0  0
    1.6020   64.6360   70.3390 C   0  0  0  0  0  0  0  0  0  0  0  0
    0.3960   65.5610   70.5490 C   0  0  0  0  0  0  0  0  0  0  0  0
   -0.1430   66.0690   69.3280 O   0  0  0  0  0  0  0  0  0  0  0  0
    0.6130   67.0900   68.6550 C   0  0  0  0  0  0  0  0  0  0  0  0
   -0.0590   67.7340   67.4400 C   0  0  0  0  0  0  0  0  0  0  0  0
   -0.0020   66.8230   66.3360 O   0  0  0  0  0  0  0  0  0  0  0  0
    1.2946   62.5728   70.2082 H   0  0  0  0  0  0  0  0  0  0  0  0
    2.8617   61.7891   71.5040 H   0  0  0  0  0  0  0  0  0  0  0  0
    3.3875   63.5280   71.6336 H   0  0  0  0  0  0  0  0  0  0  0  0
    3.1813   62.4596   73.8709 H   0  0  0  0  0  0  0  0  0  0  0  0
    2.0164   63.8176   73.6476 H   0  0  0  0  0  0  0  0  0  0  0  0
    0.0106   61.0061   72.0518 H   0  0  0  0  0  0  0  0  0  0  0  0
   -0.9397   61.9907   73.2518 H   0  0  0  0  0  0  0  0  0  0  0  0
   -0.0934   64.0564   72.3297 H   0  0  0  0  0  0  0  0  0  0  0  0
   -0.7521   63.0324   70.9785 H   0  0  0  0  0  0  0  0  0  0  0  0
    2.7667   61.7685   75.5832 H   0  0  0  0  0  0  0  0  0  0  0  0
    3.2553   61.0618   77.8248 H   0  0  0  0  0  0  0  0  0  0  0  0
    4.1771   59.1999   79.1930 H   0  0  0  0  0  0  0  0  0  0  0  0
    4.1740   56.8731   78.3040 H   0  0  0  0  0  0  0  0  0  0  0  0
    3.2599   56.4074   76.0336 H   0  0  0  0  0  0  0  0  0  0  0  0
   -1.3458   61.2172   75.4616 H   0  0  0  0  0  0  0  0  0  0  0  0
   -3.1615   59.5134   75.4302 H   0  0  0  0  0  0  0  0  0  0  0  0
   -2.6883   57.2005   74.6337 H   0  0  0  0  0  0  0  0  0  0  0  0
   -0.3763   56.5645   73.9504 H   0  0  0  0  0  0  0  0  0  0  0  0
    2.4901   65.0988   70.7941 H   0  0  0  0  0  0  0  0  0  0  0  0
    1.7426   64.4950   69.2572 H   0  0  0  0  0  0  0  0  0  0  0  0
   -0.3910   64.9964   71.0703 H   0  0  0  0  0  0  0  0  0  0  0  0
    0.7441   66.4235   71.1364 H   0  0  0  0  0  0  0  0  0  0  0  0
    0.8250   67.8865   69.3834 H   0  0  0  0  0  0  0  0  0  0  0  0
    1.5091   66.5855   68.2645 H   0  0  0  0  0  0  0  0  0  0  0  0
   -1.1090   67.9608   67.6768 H   0  0  0  0  0  0  0  0  0  0  0  0
    0.4626   68.6666   67.1786 H   0  0  0  0  0  0  0  0  0  0  0  0
    0.0561   65.8952   66.6764 H   0  0  0  0  0  0  0  0  0  0  0  0
  2  1  1  0
  3  2  1  0
  4  3  1  0
  5  4  1  0
  6  1  1  0
  6  5  1  0
  7  4  1  0
  8  7  2  0
  9  8  1  0
 10  9  2  0
 11 10  1  0
 12 11  2  0
 13 12  1  0
 14 13  2  0
 14  9  1  0
 15 14  1  0
 16 15  1  0
 17 16  2  0
 17  7  1  0
 18 17  1  0
 19 18  2  0
 20 19  1  0
 21 20  2  0
 21 16  1  0
 22  1  1  0
 23 22  1  0
 24 23  1  0
 25 24  1  0
 26 25  1  0
 27 26  1  0
  1 28  1  0
  2 29  1  0
  2 30  1  0
  3 31  1  0
  3 32  1  0
  5 33  1  0
  5 34  1  0
  6 35  1  0
  6 36  1  0
  8 37  1  0
 10 38  1  0
 11 39  1  0
 12 40  1  0
 13 41  1  0
 18 42  1  0
 19 43  1  0
 20 44  1  0
 21 45  1  0
 22 46  1  0
 22 47  1  0
 23 48  1  0
 23 49  1  0
 25 50  1  0
 25 51  1  0
 26 52  1  0
 26 53  1  0
 27 54  1  0
M  CHG  2   1   1   8   1
M  END
>  <score>  (9) 
-6.442

$$$$
