=
     RDKit          3D

 85 90  0  0  0  0  0  0  0  0999 V2000
    1.8710   58.9970   73.8180 C   0  0  1  0  0  0  0  0  0  0  0  0
    3.1120   58.6900   74.7340 C   0  0  1  0  0  0  0  0  0  0  0  0
    3.0410   57.4200   75.5880 C   0  0  0  0  0  0  0  0  0  0  0  0
    1.7710   57.2830   76.4150 C   0  0  1  0  0  0  0  0  0  0  0  0
    0.7800   58.4060   76.1350 C   0  0  0  0  0  0  0  0  0  0  0  0
    0.5380   58.6530   74.6310 C   0  0  1  0  0  0  0  0  0  0  0  0
   -0.5390   59.7570   74.5450 C   0  0  0  0  0  0  0  0  0  0  0  0
   -0.7250   60.2650   73.1280 C   0  0  0  0  0  0  0  0  0  0  0  0
    0.5630   60.8840   72.5590 C   0  0  2  0  0  0  0  0  0  0  0  0
    1.8280   60.5600   73.4210 C   0  0  2  0  0  0  0  0  0  0  0  0
    3.0690   61.1720   72.7140 C   0  0  1  0  0  0  0  0  0  0  0  0
    2.8920   62.6760   72.4590 C   0  0  0  0  0  0  0  0  0  0  0  0
    1.6420   63.0530   71.6210 C   0  0  1  0  0  0  0  0  0  0  0  0
    0.3840   62.3920   72.2350 C   0  0  2  0  0  0  0  0  0  0  0  0
    0.0840   63.2730   73.4550 C   0  0  0  0  0  0  0  0  0  0  0  0
    0.4270   64.7000   73.0180 C   0  0  0  0  0  0  0  0  0  0  0  0
    1.3740   64.5910   71.8010 C   0  0  2  0  0  0  0  0  0  0  0  0
    1.9070   62.6470   70.1580 C   0  0  0  0  0  0  0  0  0  0  0  0
    0.8750   65.3850   70.6190 C   0  0  0  0  0  0  0  0  0  0  0  0
    1.5410   66.3800   70.0310 C   0  0  0  0  0  0  0  0  0  0  0  0
    0.6940   66.9030   68.9620 C   0  0  0  0  0  0  0  0  0  0  0  0
    1.0020   67.8140   68.2170 O   0  0  0  0  0  0  0  0  0  0  0  0
   -0.4750   66.2120   68.9440 O   0  0  0  0  0  0  0  0  0  0  0  0
   -0.4480   65.2090   69.9650 C   0  0  0  0  0  0  0  0  0  0  0  0
    4.3060   58.5520   73.9560 O   0  0  0  0  0  0  0  0  0  0  0  0
   -0.1060   57.4920   74.0880 O   0  0  0  0  0  0  0  0  0  0  0  0
    4.2360   61.0380   73.5260 O   0  0  0  0  0  0  0  0  0  0  0  0
   -0.7210   62.5510   71.3380 O   0  0  0  0  0  0  0  0  0  0  0  0
    1.9650   58.1660   72.4990 C   0  0  0  0  0  0  0  0  0  0  0  0
    2.2770   56.7960   72.7200 O   0  0  0  0  0  0  0  0  0  0  0  0
    1.1310   56.0420   76.0990 O   0  0  0  0  0  0  0  0  0  0  0  0
    0.1560   55.6200   77.0630 C   0  0  2  0  0  0  0  0  0  0  0  0
    0.7250   54.5400   77.8120 O   0  0  0  0  0  0  0  0  0  0  0  0
    0.5200   53.2800   77.1830 C   0  0  1  0  0  0  0  0  0  0  0  0
    1.4290   52.2640   77.8680 C   0  0  0  0  0  0  0  0  0  0  0  0
   -0.9660   52.8900   77.3160 C   0  0  1  0  0  0  0  0  0  0  0  0
   -1.8920   54.0920   77.0410 C   0  0  2  0  0  0  0  0  0  0  0  0
   -1.1640   55.2420   76.3390 C   0  0  1  0  0  0  0  0  0  0  0  0
   -2.0480   56.3790   76.2700 O   0  0  0  0  0  0  0  0  0  0  0  0
   -2.4510   54.6110   78.2660 O   0  0  0  0  0  0  0  0  0  0  0  0
   -1.2930   51.8340   76.4090 O   0  0  0  0  0  0  0  0  0  0  0  0
    3.1138   59.5580   75.4097 H   0  0  0  0  0  0  0  0  0  0  0  0
    3.1089   56.5510   74.9169 H   0  0  0  0  0  0  0  0  0  0  0  0
    3.8743   57.4785   76.3037 H   0  0  0  0  0  0  0  0  0  0  0  0
    2.0647   57.3275   77.4741 H   0  0  0  0  0  0  0  0  0  0  0  0
   -0.1807   58.1476   76.6044 H   0  0  0  0  0  0  0  0  0  0  0  0
    1.2118   59.3291   76.5490 H   0  0  0  0  0  0  0  0  0  0  0  0
   -1.4952   59.3481   74.9034 H   0  0  0  0  0  0  0  0  0  0  0  0
   -0.2077   60.6020   75.1665 H   0  0  0  0  0  0  0  0  0  0  0  0
   -1.0270   59.4237   72.4868 H   0  0  0  0  0  0  0  0  0  0  0  0
   -1.4960   61.0493   73.1489 H   0  0  0  0  0  0  0  0  0  0  0  0
    0.7584   60.3939   71.5938 H   0  0  0  0  0  0  0  0  0  0  0  0
    1.8061   61.0393   74.4108 H   0  0  0  0  0  0  0  0  0  0  0  0
    3.1761   60.6275   71.7642 H   0  0  0  0  0  0  0  0  0  0  0  0
    2.8156   63.1812   73.4331 H   0  0  0  0  0  0  0  0  0  0  0  0
    3.7655   62.9945   71.8711 H   0  0  0  0  0  0  0  0  0  0  0  0
   -0.9782   63.1996   73.7313 H   0  0  0  0  0  0  0  0  0  0  0  0
    0.6646   62.9637   74.3366 H   0  0  0  0  0  0  0  0  0  0  0  0
   -0.4898   65.2380   72.7350 H   0  0  0  0  0  0  0  0  0  0  0  0
    0.9074   65.2543   73.8378 H   0  0  0  0  0  0  0  0  0  0  0  0
    2.3521   65.0744   71.9411 H   0  0  0  0  0  0  0  0  0  0  0  0
    2.5081   61.7260   70.1362 H   0  0  0  0  0  0  0  0  0  0  0  0
    0.9489   62.4717   69.6468 H   0  0  0  0  0  0  0  0  0  0  0  0
    2.4531   63.4535   69.6468 H   0  0  0  0  0  0  0  0  0  0  0  0
    2.5444   66.7406   70.3016 H   0  0  0  0  0  0  0  0  0  0  0  0
   -0.5350   64.2041   69.5262 H   0  0  0  0  0  0  0  0  0  0  0  0
   -1.2833   65.3086   70.6737 H   0  0  0  0  0  0  0  0  0  0  0  0
    5.0850   58.4620   74.5602 H   0  0  0  0  0  0  0  0  0  0  0  0
   -0.4255   56.9159   74.8270 H   0  0  0  0  0  0  0  0  0  0  0  0
    3.9784   61.0676   74.4814 H   0  0  0  0  0  0  0  0  0  0  0  0
   -1.5543   62.6709   71.8589 H   0  0  0  0  0  0  0  0  0  0  0  0
    0.9973   58.2246   71.9794 H   0  0  0  0  0  0  0  0  0  0  0  0
    2.7824   58.5946   71.9006 H   0  0  0  0  0  0  0  0  0  0  0  0
    2.3172   56.6196   73.6933 H   0  0  0  0  0  0  0  0  0  0  0  0
   -0.1031   56.4246   77.7669 H   0  0  0  0  0  0  0  0  0  0  0  0
    0.7654   53.3167   76.1114 H   0  0  0  0  0  0  0  0  0  0  0  0
    1.3370   52.3668   78.9593 H   0  0  0  0  0  0  0  0  0  0  0  0
    1.1333   51.2475   77.5693 H   0  0  0  0  0  0  0  0  0  0  0  0
    2.4720   52.4452   77.5693 H   0  0  0  0  0  0  0  0  0  0  0  0
   -1.1208   52.5516   78.3511 H   0  0  0  0  0  0  0  0  0  0  0  0
   -2.6871   53.7096   76.3841 H   0  0  0  0  0  0  0  0  0  0  0  0
   -0.8887   54.9169   75.3249 H   0  0  0  0  0  0  0  0  0  0  0  0
   -2.2777   56.6745   77.1865 H   0  0  0  0  0  0  0  0  0  0  0  0
   -1.9982   54.1906   79.0395 H   0  0  0  0  0  0  0  0  0  0  0  0
   -1.5436   51.0248   76.9213 H   0  0  0  0  0  0  0  0  0  0  0  0
  2  1  1  0
  3  2  1  0
  4  3  1  0
  5  4  1  0
  6  5  1  0
  6  1  1  0
  7  6  1  0
  8  7  1  0
  9  8  1  0
 10  1  1  0
 10  9  1  0
 11 10  1  0
 12 11  1  0
 13 12  1  0
 14 13  1  0
 14  9  1  0
 15 14  1  0
 16 15  1  0
 17 16  1  0
 17 13  1  0
 13 18  1  6
 19 17  1  0
 20 19  2  0
 21 20  1  0
 22 21  2  0
 23 21  1  0
 24 19  1  0
 24 23  1  0
 25  2  1  0
  6 26  1  6
 27 11  1  0
 14 28  1  6
  1 29  1  6
 30 29  1  0
 31  4  1  0
 32 31  1  0
 33 32  1  0
 34 33  1  0
 35 34  1  0
 36 34  1  0
 37 36  1  0
 38 37  1  0
 38 32  1  0
 39 38  1  0
 40 37  1  0
 41 36  1  0
  2 42  1  1
  3 43  1  0
  3 44  1  0
  4 45  1  1
  5 46  1  0
  5 47  1  0
  7 48  1  0
  7 49  1  0
  8 50  1  0
  8 51  1  0
  9 52  1  6
 10 53  1  1
 11 54  1  6
 12 55  1  0
 12 56  1  0
 15 57  1  0
 15 58  1  0
 16 59  1  0
 16 60  1  0
 17 61  1  1
 18 62  1  0
 18 63  1  0
 18 64  1  0
 20 65  1  0
 24 66  1  0
 24 67  1  0
 25 68  1  0
 26 69  1  0
 27 70  1  0
 28 71  1  0
 29 72  1  0
 29 73  1  0
 30 74  1  0
 32 75  1  1
 34 76  1  6
 35 77  1  0
 35 78  1  0
 35 79  1  0
 36 80  1  1
 37 81  1  6
 38 82  1  6
 39 83  1  0
 40 84  1  0
 41 85  1  0
M  END
>  <score>  (1) 
-7.603

$$$$
=
     RDKit          3D

 85 90  0  0  0  0  0  0  0  0999 V2000
    2.2490   57.5830   75.9770 C   0  0  1  0  0  0  0  0  0  0  0  0
    1.8630   57.9390   77.4590 C   0  0  1  0  0  0  0  0  0  0  0  0
    1.3970   56.7810   78.3470 C   0  0  0  0  0  0  0  0  0  0  0  0
    0.2960   55.9220   77.7430 C   0  0  1  0  0  0  0  0  0  0  0  0
   -0.0440   56.3440   76.3180 C   0  0  0  0  0  0  0  0  0  0  0  0
    1.1960   56.5180   75.4160 C   0  0  1  0  0  0  0  0  0  0  0  0
    0.6580   56.8640   74.0090 C   0  0  0  0  0  0  0  0  0  0  0  0
    1.7650   57.2820   73.0610 C   0  0  0  0  0  0  0  0  0  0  0  0
    2.5080   58.5370   73.5520 C   0  0  2  0  0  0  0  0  0  0  0  0
    2.1830   58.8950   75.0390 C   0  0  2  0  0  0  0  0  0  0  0  0
    3.0390   60.1280   75.4410 C   0  0  1  0  0  0  0  0  0  0  0  0
    2.8190   61.3080   74.4840 C   0  0  0  0  0  0  0  0  0  0  0  0
    3.1110   61.0010   72.9920 C   0  0  1  0  0  0  0  0  0  0  0  0
    2.3490   59.7240   72.5630 C   0  0  2  0  0  0  0  0  0  0  0  0
    0.9060   60.2180   72.3890 C   0  0  0  0  0  0  0  0  0  0  0  0
    1.0290   61.6280   71.8040 C   0  0  0  0  0  0  0  0  0  0  0  0
    2.4570   62.1310   72.1170 C   0  0  2  0  0  0  0  0  0  0  0  0
    4.6390   60.9010   72.8150 C   0  0  0  0  0  0  0  0  0  0  0  0
    3.1780   62.6030   70.8800 C   0  0  0  0  0  0  0  0  0  0  0  0
    2.7070   62.5040   69.6360 C   0  0  0  0  0  0  0  0  0  0  0  0
    3.7260   63.0380   68.7370 C   0  0  0  0  0  0  0  0  0  0  0  0
    3.6160   63.1070   67.5270 O   0  0  0  0  0  0  0  0  0  0  0  0
    4.7990   63.4340   69.4680 O   0  0  0  0  0  0  0  0  0  0  0  0
    4.5370   63.2050   70.8570 C   0  0  0  0  0  0  0  0  0  0  0  0
    2.9690   58.5230   78.1540 O   0  0  0  0  0  0  0  0  0  0  0  0
    1.8090   55.2330   75.2500 O   0  0  0  0  0  0  0  0  0  0  0  0
    2.6800   60.5950   76.7420 O   0  0  0  0  0  0  0  0  0  0  0  0
    2.7970   59.3170   71.2650 O   0  0  0  0  0  0  0  0  0  0  0  0
    3.7070   57.0260   75.9250 C   0  0  0  0  0  0  0  0  0  0  0  0
    4.0100   56.1500   77.0040 O   0  0  0  0  0  0  0  0  0  0  0  0
    0.7240   54.5570   77.7080 O   0  0  0  0  0  0  0  0  0  0  0  0
   -0.3390   53.6020   77.8360 C   0  0  2  0  0  0  0  0  0  0  0  0
   -0.3320   52.7840   76.6620 O   0  0  0  0  0  0  0  0  0  0  0  0
   -1.0910   53.3550   75.6020 C   0  0  1  0  0  0  0  0  0  0  0  0
   -0.7520   52.5930   74.3240 C   0  0  0  0  0  0  0  0  0  0  0  0
   -2.5900   53.2470   75.9450 C   0  0  1  0  0  0  0  0  0  0  0  0
   -2.8600   53.6090   77.4200 C   0  0  2  0  0  0  0  0  0  0  0  0
   -1.6820   54.3460   78.0650 C   0  0  1  0  0  0  0  0  0  0  0  0
   -1.9450   54.4990   79.4740 O   0  0  0  0  0  0  0  0  0  0  0  0
   -3.1220   52.4290   78.2070 O   0  0  0  0  0  0  0  0  0  0  0  0
   -3.3620   54.1090   75.1050 O   0  0  0  0  0  0  0  0  0  0  0  0
    1.0133   58.6221   77.3129 H   0  0  0  0  0  0  0  0  0  0  0  0
    2.2635   56.1347   78.5505 H   0  0  0  0  0  0  0  0  0  0  0  0
    0.9745   57.2355   79.2552 H   0  0  0  0  0  0  0  0  0  0  0  0
   -0.5980   56.0478   78.3714 H   0  0  0  0  0  0  0  0  0  0  0  0
   -0.6935   55.5759   75.8728 H   0  0  0  0  0  0  0  0  0  0  0  0
   -0.5396   57.3241   76.3799 H   0  0  0  0  0  0  0  0  0  0  0  0
    0.1523   55.9791   73.5953 H   0  0  0  0  0  0  0  0  0  0  0  0
   -0.0373   57.7102   74.1113 H   0  0  0  0  0  0  0  0  0  0  0  0
    2.4858   56.4558   72.9718 H   0  0  0  0  0  0  0  0  0  0  0  0
    1.3061   57.5196   72.0899 H   0  0  0  0  0  0  0  0  0  0  0  0
    3.5814   58.2965   73.5585 H   0  0  0  0  0  0  0  0  0  0  0  0
    1.1416   59.2183   75.1838 H   0  0  0  0  0  0  0  0  0  0  0  0
    4.0864   59.7933   75.4090 H   0  0  0  0  0  0  0  0  0  0  0  0
    1.7692   61.6256   74.5686 H   0  0  0  0  0  0  0  0  0  0  0  0
    3.5348   62.0872   74.7848 H   0  0  0  0  0  0  0  0  0  0  0  0
    0.3546   59.5617   71.6997 H   0  0  0  0  0  0  0  0  0  0  0  0
    0.3543   60.2157   73.3406 H   0  0  0  0  0  0  0  0  0  0  0  0
    0.8697   61.5996   70.7160 H   0  0  0  0  0  0  0  0  0  0  0  0
    0.2746   62.2988   72.2410 H   0  0  0  0  0  0  0  0  0  0  0  0
    2.4941   63.0580   72.7081 H   0  0  0  0  0  0  0  0  0  0  0  0
    5.1213   60.8694   73.8031 H   0  0  0  0  0  0  0  0  0  0  0  0
    4.8844   59.9849   72.2578 H   0  0  0  0  0  0  0  0  0  0  0  0
    5.0017   61.7773   72.2578 H   0  0  0  0  0  0  0  0  0  0  0  0
    1.7294   62.0948   69.3413 H   0  0  0  0  0  0  0  0  0  0  0  0
    4.5536   64.1511   71.4178 H   0  0  0  0  0  0  0  0  0  0  0  0
    5.2919   62.5566   71.3258 H   0  0  0  0  0  0  0  0  0  0  0  0
    2.8232   58.4460   79.1302 H   0  0  0  0  0  0  0  0  0  0  0  0
    1.9967   54.8396   76.1389 H   0  0  0  0  0  0  0  0  0  0  0  0
    3.1153   60.0288   77.4276 H   0  0  0  0  0  0  0  0  0  0  0  0
    3.5264   58.6544   71.3604 H   0  0  0  0  0  0  0  0  0  0  0  0
    3.8381   56.4767   74.9810 H   0  0  0  0  0  0  0  0  0  0  0  0
    4.3888   57.8859   76.0002 H   0  0  0  0  0  0  0  0  0  0  0  0
    3.8489   56.6159   77.8625 H   0  0  0  0  0  0  0  0  0  0  0  0
   -0.2024   52.9459   78.7083 H   0  0  0  0  0  0  0  0  0  0  0  0
   -0.8530   54.4195   75.4596 H   0  0  0  0  0  0  0  0  0  0  0  0
   -0.3175   51.6164   74.5837 H   0  0  0  0  0  0  0  0  0  0  0  0
   -1.6677   52.4416   73.7335 H   0  0  0  0  0  0  0  0  0  0  0  0
   -0.0265   53.1717   73.7335 H   0  0  0  0  0  0  0  0  0  0  0  0
   -2.8867   52.2013   75.7765 H   0  0  0  0  0  0  0  0  0  0  0  0
   -3.7400   54.2689   77.4079 H   0  0  0  0  0  0  0  0  0  0  0  0
   -1.5823   55.3341   77.5920 H   0  0  0  0  0  0  0  0  0  0  0  0
   -1.2166   54.0753   79.9936 H   0  0  0  0  0  0  0  0  0  0  0  0
   -3.0716   52.6562   79.1693 H   0  0  0  0  0  0  0  0  0  0  0  0
   -3.9060   54.7164   75.6665 H   0  0  0  0  0  0  0  0  0  0  0  0
  2  1  1  0
  3  2  1  0
  4  3  1  0
  5  4  1  0
  6  5  1  0
  6  1  1  0
  7  6  1  0
  8  7  1  0
  9  8  1  0
 10  1  1  0
 10  9  1  0
 11 10  1  0
 12 11  1  0
 13 12  1  0
 14 13  1  0
 14  9  1  0
 15 14  1  0
 16 15  1  0
 17 16  1  0
 17 13  1  0
 13 18  1  1
 19 17  1  0
 20 19  2  0
 21 20  1  0
 22 21  2  0
 23 21  1  0
 24 19  1  0
 24 23  1  0
 25  2  1  0
  6 26  1  6
 27 11  1  0
 14 28  1  6
  1 29  1  1
 30 29  1  0
 31  4  1  0
 32 31  1  0
 33 32  1  0
 34 33  1  0
 35 34  1  0
 36 34  1  0
 37 36  1  0
 38 37  1  0
 38 32  1  0
 39 38  1  0
 40 37  1  0
 41 36  1  0
  2 42  1  6
  3 43  1  0
  3 44  1  0
  4 45  1  1
  5 46  1  0
  5 47  1  0
  7 48  1  0
  7 49  1  0
  8 50  1  0
  8 51  1  0
  9 52  1  1
 10 53  1  6
 11 54  1  1
 12 55  1  0
 12 56  1  0
 15 57  1  0
 15 58  1  0
 16 59  1  0
 16 60  1  0
 17 61  1  1
 18 62  1  0
 18 63  1  0
 18 64  1  0
 20 65  1  0
 24 66  1  0
 24 67  1  0
 25 68  1  0
 26 69  1  0
 27 70  1  0
 28 71  1  0
 29 72  1  0
 29 73  1  0
 30 74  1  0
 32 75  1  1
 34 76  1  6
 35 77  1  0
 35 78  1  0
 35 79  1  0
 36 80  1  1
 37 81  1  6
 38 82  1  6
 39 83  1  0
 40 84  1  0
 41 85  1  0
M  END
>  <score>  (2) 
-7.515

$$$$
=
     RDKit          3D

 85 90  0  0  0  0  0  0  0  0999 V2000
    1.1090   56.8200   74.9460 C   0  0  1  0  0  0  0  0  0  0  0  0
    2.0920   56.1420   75.9710 C   0  0  1  0  0  0  0  0  0  0  0  0
    1.5310   54.9800   76.7970 C   0  0  0  0  0  0  0  0  0  0  0  0
    0.2150   55.2800   77.5000 C   0  0  1  0  0  0  0  0  0  0  0  0
   -0.3250   56.6600   77.1440 C   0  0  0  0  0  0  0  0  0  0  0  0
   -0.3330   56.9440   75.6260 C   0  0  1  0  0  0  0  0  0  0  0  0
   -0.9780   58.3380   75.4550 C   0  0  0  0  0  0  0  0  0  0  0  0
   -0.8560   58.8530   74.0340 C   0  0  0  0  0  0  0  0  0  0  0  0
    0.6110   59.0070   73.5960 C   0  0  2  0  0  0  0  0  0  0  0  0
    1.6150   58.3050   74.5680 C   0  0  2  0  0  0  0  0  0  0  0  0
    3.0480   58.4650   73.9880 C   0  0  1  0  0  0  0  0  0  0  0  0
    3.3960   59.9400   73.7380 C   0  0  0  0  0  0  0  0  0  0  0  0
    2.4210   60.6890   72.7920 C   0  0  1  0  0  0  0  0  0  0  0  0
    0.9650   60.4850   73.2760 C   0  0  2  0  0  0  0  0  0  0  0  0
    0.8570   61.4380   74.4750 C   0  0  0  0  0  0  0  0  0  0  0  0
    1.6850   62.6670   74.0910 C   0  0  0  0  0  0  0  0  0  0  0  0
    2.6530   62.2340   72.9650 C   0  0  2  0  0  0  0  0  0  0  0  0
    2.6730   60.1920   71.3550 C   0  0  0  0  0  0  0  0  0  0  0  0
    2.5530   63.1250   71.7530 C   0  0  0  0  0  0  0  0  0  0  0  0
    1.5160   63.9150   71.4700 C   0  0  0  0  0  0  0  0  0  0  0  0
    1.8000   64.5720   70.1970 C   0  0  0  0  0  0  0  0  0  0  0  0
    1.0630   65.3700   69.6490 O   0  0  0  0  0  0  0  0  0  0  0  0
    3.0040   64.1450   69.7360 O   0  0  0  0  0  0  0  0  0  0  0  0
    3.5690   63.2220   70.6740 C   0  0  0  0  0  0  0  0  0  0  0  0
    3.2420   55.6090   75.3060 O   0  0  0  0  0  0  0  0  0  0  0  0
   -1.2670   56.0480   75.0110 O   0  0  0  0  0  0  0  0  0  0  0  0
    4.0270   57.9740   74.9040 O   0  0  0  0  0  0  0  0  0  0  0  0
    0.0600   60.9800   72.2820 O   0  0  0  0  0  0  0  0  0  0  0  0
    1.0490   55.9800   73.6310 C   0  0  0  0  0  0  0  0  0  0  0  0
    0.7090   54.6170   73.8510 O   0  0  0  0  0  0  0  0  0  0  0  0
   -0.7630   54.3100   77.1090 O   0  0  0  0  0  0  0  0  0  0  0  0
   -1.4230   53.6640   78.2070 C   0  0  2  0  0  0  0  0  0  0  0  0
   -2.1800   52.5710   77.6760 O   0  0  0  0  0  0  0  0  0  0  0  0
   -3.4770   52.9710   77.2450 C   0  0  1  0  0  0  0  0  0  0  0  0
   -4.0590   51.8340   76.4110 C   0  0  0  0  0  0  0  0  0  0  0  0
   -4.3450   53.2680   78.4820 C   0  0  1  0  0  0  0  0  0  0  0  0
   -3.5640   54.0690   79.5440 C   0  0  2  0  0  0  0  0  0  0  0  0
   -2.2880   54.6990   78.9760 C   0  0  1  0  0  0  0  0  0  0  0  0
   -1.5360   55.2840   80.0590 O   0  0  0  0  0  0  0  0  0  0  0  0
   -3.1810   53.2290   80.6530 O   0  0  0  0  0  0  0  0  0  0  0  0
   -5.5140   54.0040   78.1120 O   0  0  0  0  0  0  0  0  0  0  0  0
    2.3145   56.9734   76.6560 H   0  0  0  0  0  0  0  0  0  0  0  0
    1.3730   54.1250   76.1233 H   0  0  0  0  0  0  0  0  0  0  0  0
    2.2676   54.7756   77.5880 H   0  0  0  0  0  0  0  0  0  0  0  0
    0.4079   55.2454   78.5824 H   0  0  0  0  0  0  0  0  0  0  0  0
   -1.3564   56.7379   77.5185 H   0  0  0  0  0  0  0  0  0  0  0  0
    0.3437   57.3996   77.6087 H   0  0  0  0  0  0  0  0  0  0  0  0
   -2.0441   58.2700   75.7172 H   0  0  0  0  0  0  0  0  0  0  0  0
   -0.4481   59.0396   76.1160 H   0  0  0  0  0  0  0  0  0  0  0  0
   -1.3556   58.1450   73.3564 H   0  0  0  0  0  0  0  0  0  0  0  0
   -1.3269   59.8463   73.9930 H   0  0  0  0  0  0  0  0  0  0  0  0
    0.7241   58.4615   72.6475 H   0  0  0  0  0  0  0  0  0  0  0  0
    1.6586   58.7842   75.5572 H   0  0  0  0  0  0  0  0  0  0  0  0
    3.0588   57.8972   73.0459 H   0  0  0  0  0  0  0  0  0  0  0  0
    3.3985   60.4597   74.7075 H   0  0  0  0  0  0  0  0  0  0  0  0
    4.3762   59.9458   73.2388 H   0  0  0  0  0  0  0  0  0  0  0  0
   -0.1919   61.7195   74.6500 H   0  0  0  0  0  0  0  0  0  0  0  0
    1.2209   60.9723   75.4027 H   0  0  0  0  0  0  0  0  0  0  0  0
    1.0239   63.4693   73.7316 H   0  0  0  0  0  0  0  0  0  0  0  0
    2.2423   63.0486   74.9592 H   0  0  0  0  0  0  0  0  0  0  0  0
    3.7180   62.3760   73.2009 H   0  0  0  0  0  0  0  0  0  0  0  0
    3.1702   59.2114   71.3881 H   0  0  0  0  0  0  0  0  0  0  0  0
    1.7133   60.0988   70.8257 H   0  0  0  0  0  0  0  0  0  0  0  0
    3.3154   60.9111   70.8257 H   0  0  0  0  0  0  0  0  0  0  0  0
    0.6124   64.0473   72.0832 H   0  0  0  0  0  0  0  0  0  0  0  0
    4.5220   63.6032   71.0696 H   0  0  0  0  0  0  0  0  0  0  0  0
    3.7928   62.2457   70.2193 H   0  0  0  0  0  0  0  0  0  0  0  0
    3.9006   55.3038   75.9792 H   0  0  0  0  0  0  0  0  0  0  0  0
   -1.7712   55.5643   75.7124 H   0  0  0  0  0  0  0  0  0  0  0  0
    3.7180   58.1290   75.8317 H   0  0  0  0  0  0  0  0  0  0  0  0
   -0.7167   61.4048   72.7251 H   0  0  0  0  0  0  0  0  0  0  0  0
    0.2945   56.4254   72.9660 H   0  0  0  0  0  0  0  0  0  0  0  0
    2.0548   55.9979   73.1860 H   0  0  0  0  0  0  0  0  0  0  0  0
    0.6650   54.4408   74.8242 H   0  0  0  0  0  0  0  0  0  0  0  0
   -0.7081   53.2603   78.9391 H   0  0  0  0  0  0  0  0  0  0  0  0
   -3.4394   53.8839   76.6325 H   0  0  0  0  0  0  0  0  0  0  0  0
   -4.4572   51.0560   77.0789 H   0  0  0  0  0  0  0  0  0  0  0  0
   -4.8692   52.2223   75.7763 H   0  0  0  0  0  0  0  0  0  0  0  0
   -3.2702   51.4038   75.7763 H   0  0  0  0  0  0  0  0  0  0  0  0
   -4.6360   52.2985   78.9125 H   0  0  0  0  0  0  0  0  0  0  0  0
   -4.2461   54.8644   79.8789 H   0  0  0  0  0  0  0  0  0  0  0  0
   -2.5722   55.4765   78.2516 H   0  0  0  0  0  0  0  0  0  0  0  0
   -1.9171   54.9875   80.9233 H   0  0  0  0  0  0  0  0  0  0  0  0
   -3.3910   53.6896   81.5038 H   0  0  0  0  0  0  0  0  0  0  0  0
   -5.9881   54.3025   78.9282 H   0  0  0  0  0  0  0  0  0  0  0  0
  2  1  1  0
  3  2  1  0
  4  3  1  0
  5  4  1  0
  6  5  1  0
  6  1  1  0
  7  6  1  0
  8  7  1  0
  9  8  1  0
 10  1  1  0
 10  9  1  0
 11 10  1  0
 12 11  1  0
 13 12  1  0
 14 13  1  0
 14  9  1  0
 15 14  1  0
 16 15  1  0
 17 16  1  0
 17 13  1  0
 13 18  1  6
 19 17  1  0
 20 19  2  0
 21 20  1  0
 22 21  2  0
 23 21  1  0
 24 19  1  0
 24 23  1  0
 25  2  1  0
  6 26  1  6
 27 11  1  0
 14 28  1  6
  1 29  1  6
 30 29  1  0
 31  4  1  0
 32 31  1  0
 33 32  1  0
 34 33  1  0
 35 34  1  0
 36 34  1  0
 37 36  1  0
 38 37  1  0
 38 32  1  0
 39 38  1  0
 40 37  1  0
 41 36  1  0
  2 42  1  1
  3 43  1  0
  3 44  1  0
  4 45  1  1
  5 46  1  0
  5 47  1  0
  7 48  1  0
  7 49  1  0
  8 50  1  0
  8 51  1  0
  9 52  1  6
 10 53  1  1
 11 54  1  6
 12 55  1  0
 12 56  1  0
 15 57  1  0
 15 58  1  0
 16 59  1  0
 16 60  1  0
 17 61  1  1
 18 62  1  0
 18 63  1  0
 18 64  1  0
 20 65  1  0
 24 66  1  0
 24 67  1  0
 25 68  1  0
 26 69  1  0
 27 70  1  0
 28 71  1  0
 29 72  1  0
 29 73  1  0
 30 74  1  0
 32 75  1  1
 34 76  1  6
 35 77  1  0
 35 78  1  0
 35 79  1  0
 36 80  1  1
 37 81  1  1
 38 82  1  6
 39 83  1  0
 40 84  1  0
 41 85  1  0
M  END
>  <score>  (3) 
-7.221

$$$$
=
     RDKit          3D

 85 90  0  0  0  0  0  0  0  0999 V2000
   -2.0660   62.1650   76.3850 C   0  0  1  0  0  0  0  0  0  0  0  0
   -2.4640   63.4460   77.2060 C   0  0  1  0  0  0  0  0  0  0  0  0
   -3.7730   63.3770   77.9990 C   0  0  0  0  0  0  0  0  0  0  0  0
   -4.9780   62.9140   77.1940 C   0  0  1  0  0  0  0  0  0  0  0  0
   -4.5990   62.5140   75.7730 C   0  0  0  0  0  0  0  0  0  0  0  0
   -3.3830   61.5650   75.7050 C   0  0  1  0  0  0  0  0  0  0  0  0
   -3.2000   61.2090   74.2130 C   0  0  0  0  0  0  0  0  0  0  0  0
   -1.9070   60.4570   73.9590 C   0  0  0  0  0  0  0  0  0  0  0  0
   -0.6690   61.2810   74.3550 C   0  0  2  0  0  0  0  0  0  0  0  0
   -1.0230   62.5400   75.2130 C   0  0  2  0  0  0  0  0  0  0  0  0
    0.3030   63.2470   75.6100 C   0  0  1  0  0  0  0  0  0  0  0  0
    1.1550   63.5870   74.3780 C   0  0  0  0  0  0  0  0  0  0  0  0
    1.5200   62.3740   73.4820 C   0  0  1  0  0  0  0  0  0  0  0  0
    0.2390   61.5810   73.1310 C   0  0  2  0  0  0  0  0  0  0  0  0
   -0.4210   62.4430   72.0460 C   0  0  0  0  0  0  0  0  0  0  0  0
    0.7360   63.0090   71.2190 C   0  0  0  0  0  0  0  0  0  0  0  0
    2.0100   62.9180   72.0910 C   0  0  2  0  0  0  0  0  0  0  0  0
    2.5850   61.5390   74.2200 C   0  0  0  0  0  0  0  0  0  0  0  0
    3.1330   62.2010   71.3850 C   0  0  0  0  0  0  0  0  0  0  0  0
    2.9740   61.3190   70.3960 C   0  0  0  0  0  0  0  0  0  0  0  0
    4.3010   60.8340   70.0250 C   0  0  0  0  0  0  0  0  0  0  0  0
    4.5210   60.0230   69.1450 O   0  0  0  0  0  0  0  0  0  0  0  0
    5.2290   61.4310   70.8160 O   0  0  0  0  0  0  0  0  0  0  0  0
    4.5760   62.3340   71.7140 C   0  0  0  0  0  0  0  0  0  0  0  0
   -1.4580   63.7730   78.1710 O   0  0  0  0  0  0  0  0  0  0  0  0
   -3.7540   60.3230   76.3180 O   0  0  0  0  0  0  0  0  0  0  0  0
    0.0420   64.4860   76.2700 O   0  0  0  0  0  0  0  0  0  0  0  0
    0.6030   60.3460   72.5030 O   0  0  0  0  0  0  0  0  0  0  0  0
   -1.3830   61.1220   77.3240 C   0  0  0  0  0  0  0  0  0  0  0  0
   -2.1370   60.8450   78.4980 O   0  0  0  0  0  0  0  0  0  0  0  0
   -5.5650   61.7750   77.8310 O   0  0  0  0  0  0  0  0  0  0  0  0
   -6.8490   61.4050   77.3110 C   0  0  2  0  0  0  0  0  0  0  0  0
   -7.8430   61.9010   78.2140 O   0  0  0  0  0  0  0  0  0  0  0  0
   -8.1100   60.9920   79.2760 C   0  0  1  0  0  0  0  0  0  0  0  0
   -8.9130   61.7390   80.3370 C   0  0  0  0  0  0  0  0  0  0  0  0
   -8.8910   59.7860   78.7180 C   0  0  1  0  0  0  0  0  0  0  0  0
   -8.3100   59.3090   77.3720 C   0  0  2  0  0  0  0  0  0  0  0  0
   -6.9070   59.8670   77.1120 C   0  0  1  0  0  0  0  0  0  0  0  0
   -6.5080   59.5130   75.7720 O   0  0  0  0  0  0  0  0  0  0  0  0
   -9.1510   59.7090   76.2700 O   0  0  0  0  0  0  0  0  0  0  0  0
   -8.8690   58.6990   79.6460 O   0  0  0  0  0  0  0  0  0  0  0  0
   -2.5843   64.1960   76.4104 H   0  0  0  0  0  0  0  0  0  0  0  0
   -3.6305   62.6777   78.8361 H   0  0  0  0  0  0  0  0  0  0  0  0
   -3.9932   64.4037   78.3268 H   0  0  0  0  0  0  0  0  0  0  0  0
   -5.6830   63.7571   77.1471 H   0  0  0  0  0  0  0  0  0  0  0  0
   -5.4608   62.0096   75.3115 H   0  0  0  0  0  0  0  0  0  0  0  0
   -4.3211   63.4354   75.2402 H   0  0  0  0  0  0  0  0  0  0  0  0
   -4.0442   60.5810   73.8923 H   0  0  0  0  0  0  0  0  0  0  0  0
   -3.1621   62.1491   73.6431 H   0  0  0  0  0  0  0  0  0  0  0  0
   -1.9166   59.5271   74.5465 H   0  0  0  0  0  0  0  0  0  0  0  0
   -1.8435   60.2482   72.8809 H   0  0  0  0  0  0  0  0  0  0  0  0
   -0.0648   60.6546   75.0277 H   0  0  0  0  0  0  0  0  0  0  0  0
   -1.5863   63.2980   74.6490 H   0  0  0  0  0  0  0  0  0  0  0  0
    0.8355   62.5452   76.2687 H   0  0  0  0  0  0  0  0  0  0  0  0
    0.5962   64.3091   73.7646 H   0  0  0  0  0  0  0  0  0  0  0  0
    2.1062   63.9855   74.7608 H   0  0  0  0  0  0  0  0  0  0  0  0
   -1.0811   61.8294   71.4153 H   0  0  0  0  0  0  0  0  0  0  0  0
   -1.0438   63.2400   72.4784 H   0  0  0  0  0  0  0  0  0  0  0  0
    0.8658   62.4191   70.2997 H   0  0  0  0  0  0  0  0  0  0  0  0
    0.5352   64.0510   70.9292 H   0  0  0  0  0  0  0  0  0  0  0  0
    2.5043   63.8829   72.2771 H   0  0  0  0  0  0  0  0  0  0  0  0
    2.4476   61.6467   75.3061 H   0  0  0  0  0  0  0  0  0  0  0  0
    2.4795   60.4804   73.9403 H   0  0  0  0  0  0  0  0  0  0  0  0
    3.5879   61.8940   73.9403 H   0  0  0  0  0  0  0  0  0  0  0  0
    2.0191   61.0134   69.9434 H   0  0  0  0  0  0  0  0  0  0  0  0
    4.9200   63.3655   71.5476 H   0  0  0  0  0  0  0  0  0  0  0  0
    4.7891   62.1049   72.7686 H   0  0  0  0  0  0  0  0  0  0  0  0
   -1.8244   63.6539   79.0830 H   0  0  0  0  0  0  0  0  0  0  0  0
   -3.7252   60.4195   77.3029 H   0  0  0  0  0  0  0  0  0  0  0  0
    0.0706   64.3502   77.2502 H   0  0  0  0  0  0  0  0  0  0  0  0
    0.8025   59.6690   73.1972 H   0  0  0  0  0  0  0  0  0  0  0  0
   -1.2491   60.1839   76.7654 H   0  0  0  0  0  0  0  0  0  0  0  0
   -0.4234   61.5523   77.6464 H   0  0  0  0  0  0  0  0  0  0  0  0
   -1.5888   61.0464   79.2974 H   0  0  0  0  0  0  0  0  0  0  0  0
   -7.0363   61.8471   76.3213 H   0  0  0  0  0  0  0  0  0  0  0  0
   -7.1823   60.6125   79.7292 H   0  0  0  0  0  0  0  0  0  0  0  0
   -8.5780   61.4273   81.3373 H   0  0  0  0  0  0  0  0  0  0  0  0
   -8.7582   62.8217   80.2193 H   0  0  0  0  0  0  0  0  0  0  0  0
   -9.9817   61.5065   80.2193 H   0  0  0  0  0  0  0  0  0  0  0  0
   -9.9277   60.1175   78.5587 H   0  0  0  0  0  0  0  0  0  0  0  0
   -8.2592   58.2124   77.4417 H   0  0  0  0  0  0  0  0  0  0  0  0
   -6.2116   59.4262   77.8415 H   0  0  0  0  0  0  0  0  0  0  0  0
   -5.7680   58.8565   75.8106 H   0  0  0  0  0  0  0  0  0  0  0  0
   -9.9872   60.1067   76.6204 H   0  0  0  0  0  0  0  0  0  0  0  0
   -8.8762   59.0539   80.5702 H   0  0  0  0  0  0  0  0  0  0  0  0
  2  1  1  0
  3  2  1  0
  4  3  1  0
  5  4  1  0
  6  5  1  0
  6  1  1  0
  7  6  1  0
  8  7  1  0
  9  8  1  0
 10  1  1  0
 10  9  1  0
 11 10  1  0
 12 11  1  0
 13 12  1  0
 14 13  1  0
 14  9  1  0
 15 14  1  0
 16 15  1  0
 17 16  1  0
 17 13  1  0
 13 18  1  1
 19 17  1  0
 20 19  2  0
 21 20  1  0
 22 21  2  0
 23 21  1  0
 24 19  1  0
 24 23  1  0
 25  2  1  0
  6 26  1  1
 27 11  1  0
 14 28  1  6
  1 29  1  1
 30 29  1  0
 31  4  1  0
 32 31  1  0
 33 32  1  0
 34 33  1  0
 35 34  1  0
 36 34  1  0
 37 36  1  0
 38 37  1  0
 38 32  1  0
 39 38  1  0
 40 37  1  0
 41 36  1  0
  2 42  1  6
  3 43  1  0
  3 44  1  0
  4 45  1  6
  5 46  1  0
  5 47  1  0
  7 48  1  0
  7 49  1  0
  8 50  1  0
  8 51  1  0
  9 52  1  1
 10 53  1  6
 11 54  1  1
 12 55  1  0
 12 56  1  0
 15 57  1  0
 15 58  1  0
 16 59  1  0
 16 60  1  0
 17 61  1  1
 18 62  1  0
 18 63  1  0
 18 64  1  0
 20 65  1  0
 24 66  1  0
 24 67  1  0
 25 68  1  0
 26 69  1  0
 27 70  1  0
 28 71  1  0
 29 72  1  0
 29 73  1  0
 30 74  1  0
 32 75  1  6
 34 76  1  1
 35 77  1  0
 35 78  1  0
 35 79  1  0
 36 80  1  6
 37 81  1  1
 38 82  1  1
 39 83  1  0
 40 84  1  0
 41 85  1  0
M  END
>  <score>  (4) 
-7.182

$$$$
=
     RDKit          3D

 85 90  0  0  0  0  0  0  0  0999 V2000
   -1.9290   62.2670   76.3790 C   0  0  1  0  0  0  0  0  0  0  0  0
   -2.3140   63.5790   77.1560 C   0  0  1  0  0  0  0  0  0  0  0  0
   -3.5980   63.5350   77.9900 C   0  0  0  0  0  0  0  0  0  0  0  0
   -4.8220   63.0280   77.2410 C   0  0  1  0  0  0  0  0  0  0  0  0
   -4.4810   62.5690   75.8290 C   0  0  0  0  0  0  0  0  0  0  0  0
   -3.2600   61.6270   75.7650 C   0  0  1  0  0  0  0  0  0  0  0  0
   -3.1170   61.2090   74.2850 C   0  0  0  0  0  0  0  0  0  0  0  0
   -1.8260   60.4570   74.0260 C   0  0  0  0  0  0  0  0  0  0  0  0
   -0.5840   61.3060   74.3480 C   0  0  2  0  0  0  0  0  0  0  0  0
   -0.9240   62.5990   75.1610 C   0  0  2  0  0  0  0  0  0  0  0  0
    0.4070   63.3320   75.4880 C   0  0  1  0  0  0  0  0  0  0  0  0
    1.2190   63.6250   74.2180 C   0  0  0  0  0  0  0  0  0  0  0  0
    1.5690   62.3770   73.3650 C   0  0  1  0  0  0  0  0  0  0  0  0
    0.2850   61.5600   73.0860 C   0  0  2  0  0  0  0  0  0  0  0  0
   -0.4150   62.3690   71.9850 C   0  0  0  0  0  0  0  0  0  0  0  0
    0.7130   62.9080   71.1010 C   0  0  0  0  0  0  0  0  0  0  0  0
    2.0130   62.8640   71.9380 C   0  0  2  0  0  0  0  0  0  0  0  0
    2.6630   61.5830   74.1060 C   0  0  0  0  0  0  0  0  0  0  0  0
    3.1210   62.1260   71.2300 C   0  0  0  0  0  0  0  0  0  0  0  0
    2.9420   61.1360   70.3540 C   0  0  0  0  0  0  0  0  0  0  0  0
    4.2630   60.6740   69.9390 C   0  0  0  0  0  0  0  0  0  0  0  0
    4.4650   59.7830   69.1350 O   0  0  0  0  0  0  0  0  0  0  0  0
    5.2110   61.3940   70.5920 O   0  0  0  0  0  0  0  0  0  0  0  0
    4.5740   62.3590   71.4360 C   0  0  0  0  0  0  0  0  0  0  0  0
   -1.2830   63.9550   78.0750 O   0  0  0  0  0  0  0  0  0  0  0  0
   -3.6010   60.4100   76.4420 O   0  0  0  0  0  0  0  0  0  0  0  0
    0.1540   64.5960   76.1020 O   0  0  0  0  0  0  0  0  0  0  0  0
    0.6410   60.3020   72.5010 O   0  0  0  0  0  0  0  0  0  0  0  0
   -1.2090   61.2700   77.3420 C   0  0  0  0  0  0  0  0  0  0  0  0
   -1.8970   61.0830   78.5720 O   0  0  0  0  0  0  0  0  0  0  0  0
   -5.3800   61.9130   77.9450 O   0  0  0  0  0  0  0  0  0  0  0  0
   -6.8100   61.8280   77.8760 C   0  0  2  0  0  0  0  0  0  0  0  0
   -7.1530   60.4600   77.6300 O   0  0  0  0  0  0  0  0  0  0  0  0
   -7.1550   60.1450   76.2410 C   0  0  1  0  0  0  0  0  0  0  0  0
   -7.2010   58.6260   76.1090 C   0  0  0  0  0  0  0  0  0  0  0  0
   -8.3790   60.8080   75.5800 C   0  0  1  0  0  0  0  0  0  0  0  0
   -8.5800   62.2530   76.0820 C   0  0  2  0  0  0  0  0  0  0  0  0
   -7.3380   62.8030   76.7890 C   0  0  1  0  0  0  0  0  0  0  0  0
   -7.6620   64.0820   77.3700 O   0  0  0  0  0  0  0  0  0  0  0  0
   -9.6830   62.3330   77.0100 O   0  0  0  0  0  0  0  0  0  0  0  0
   -8.2350   60.8260   74.1580 O   0  0  0  0  0  0  0  0  0  0  0  0
   -2.4648   64.2927   76.3327 H   0  0  0  0  0  0  0  0  0  0  0  0
   -3.4249   62.8740   78.8520 H   0  0  0  0  0  0  0  0  0  0  0  0
   -3.8175   64.5731   78.2801 H   0  0  0  0  0  0  0  0  0  0  0  0
   -5.5355   63.8628   77.1774 H   0  0  0  0  0  0  0  0  0  0  0  0
   -5.3516   62.0388   75.4156 H   0  0  0  0  0  0  0  0  0  0  0  0
   -4.2260   63.4685   75.2495 H   0  0  0  0  0  0  0  0  0  0  0  0
   -3.9646   60.5615   74.0160 H   0  0  0  0  0  0  0  0  0  0  0  0
   -3.1038   62.1241   73.6747 H   0  0  0  0  0  0  0  0  0  0  0  0
   -1.8101   59.5538   74.6537 H   0  0  0  0  0  0  0  0  0  0  0  0
   -1.7926   60.2020   72.9565 H   0  0  0  0  0  0  0  0  0  0  0  0
    0.0455   60.7131   75.0278 H   0  0  0  0  0  0  0  0  0  0  0  0
   -1.5101   63.3276   74.5817 H   0  0  0  0  0  0  0  0  0  0  0  0
    0.9653   62.6634   76.1598 H   0  0  0  0  0  0  0  0  0  0  0  0
    0.6356   64.3151   73.5908 H   0  0  0  0  0  0  0  0  0  0  0  0
    2.1771   64.0477   74.5546 H   0  0  0  0  0  0  0  0  0  0  0  0
   -1.0874   61.7235   71.4009 H   0  0  0  0  0  0  0  0  0  0  0  0
   -1.0329   63.1786   72.4007 H   0  0  0  0  0  0  0  0  0  0  0  0
    0.8212   62.2804   70.2041 H   0  0  0  0  0  0  0  0  0  0  0  0
    0.4947   63.9352   70.7736 H   0  0  0  0  0  0  0  0  0  0  0  0
    2.5042   63.8396   72.0681 H   0  0  0  0  0  0  0  0  0  0  0  0
    2.5198   61.6870   75.1917 H   0  0  0  0  0  0  0  0  0  0  0  0
    2.5974   60.5209   73.8275 H   0  0  0  0  0  0  0  0  0  0  0  0
    3.6525   61.9746   73.8275 H   0  0  0  0  0  0  0  0  0  0  0  0
    1.9758   60.7403   70.0078 H   0  0  0  0  0  0  0  0  0  0  0  0
    4.8508   63.3808   71.1373 H   0  0  0  0  0  0  0  0  0  0  0  0
    4.8705   62.2556   72.4902 H   0  0  0  0  0  0  0  0  0  0  0  0
   -1.6083   63.8364   79.0025 H   0  0  0  0  0  0  0  0  0  0  0  0
   -3.5606   60.5543   77.4206 H   0  0  0  0  0  0  0  0  0  0  0  0
    0.1743   64.4946   77.0866 H   0  0  0  0  0  0  0  0  0  0  0  0
    0.8268   59.6453   73.2182 H   0  0  0  0  0  0  0  0  0  0  0  0
   -1.1242   60.2963   76.8374 H   0  0  0  0  0  0  0  0  0  0  0  0
   -0.2247   61.6993   77.5803 H   0  0  0  0  0  0  0  0  0  0  0  0
   -1.2774   61.2514   79.3256 H   0  0  0  0  0  0  0  0  0  0  0  0
   -7.2875   62.1349   78.8182 H   0  0  0  0  0  0  0  0  0  0  0  0
   -6.2530   60.5224   75.7371 H   0  0  0  0  0  0  0  0  0  0  0  0
   -7.2148   58.1712   77.1105 H   0  0  0  0  0  0  0  0  0  0  0  0
   -8.1084   58.3329   75.5607 H   0  0  0  0  0  0  0  0  0  0  0  0
   -6.3130   58.2785   75.5607 H   0  0  0  0  0  0  0  0  0  0  0  0
   -9.2599   60.2103   75.8570 H   0  0  0  0  0  0  0  0  0  0  0  0
   -8.7844   62.8546   75.1840 H   0  0  0  0  0  0  0  0  0  0  0  0
   -6.5337   62.9185   76.0476 H   0  0  0  0  0  0  0  0  0  0  0  0
   -7.6438   64.0101   78.3572 H   0  0  0  0  0  0  0  0  0  0  0  0
   -9.3367   62.3079   77.9371 H   0  0  0  0  0  0  0  0  0  0  0  0
   -7.2804   60.9453   73.9245 H   0  0  0  0  0  0  0  0  0  0  0  0
  2  1  1  0
  3  2  1  0
  4  3  1  0
  5  4  1  0
  6  5  1  0
  6  1  1  0
  7  6  1  0
  8  7  1  0
  9  8  1  0
 10  1  1  0
 10  9  1  0
 11 10  1  0
 12 11  1  0
 13 12  1  0
 14 13  1  0
 14  9  1  0
 15 14  1  0
 16 15  1  0
 17 16  1  0
 17 13  1  0
 13 18  1  1
 19 17  1  0
 20 19  2  0
 21 20  1  0
 22 21  2  0
 23 21  1  0
 24 19  1  0
 24 23  1  0
 25  2  1  0
  6 26  1  1
 27 11  1  0
 14 28  1  6
  1 29  1  1
 30 29  1  0
 31  4  1  0
 32 31  1  0
 33 32  1  0
 34 33  1  0
 35 34  1  0
 36 34  1  0
 37 36  1  0
 38 37  1  0
 38 32  1  0
 39 38  1  0
 40 37  1  0
 41 36  1  0
  2 42  1  6
  3 43  1  0
  3 44  1  0
  4 45  1  6
  5 46  1  0
  5 47  1  0
  7 48  1  0
  7 49  1  0
  8 50  1  0
  8 51  1  0
  9 52  1  1
 10 53  1  6
 11 54  1  1
 12 55  1  0
 12 56  1  0
 15 57  1  0
 15 58  1  0
 16 59  1  0
 16 60  1  0
 17 61  1  1
 18 62  1  0
 18 63  1  0
 18 64  1  0
 20 65  1  0
 24 66  1  0
 24 67  1  0
 25 68  1  0
 26 69  1  0
 27 70  1  0
 28 71  1  0
 29 72  1  0
 29 73  1  0
 30 74  1  0
 32 75  1  1
 34 76  1  6
 35 77  1  0
 35 78  1  0
 35 79  1  0
 36 80  1  6
 37 81  1  6
 38 82  1  6
 39 83  1  0
 40 84  1  0
 41 85  1  0
M  END
>  <score>  (5) 
-7.168

$$$$
=
     RDKit          3D

 85 90  0  0  0  0  0  0  0  0999 V2000
    0.0140   56.7970   75.2750 C   0  0  1  0  0  0  0  0  0  0  0  0
    0.7180   55.8780   76.3400 C   0  0  1  0  0  0  0  0  0  0  0  0
   -0.1970   55.0450   77.2430 C   0  0  0  0  0  0  0  0  0  0  0  0
   -1.3020   55.8360   77.9280 C   0  0  1  0  0  0  0  0  0  0  0  0
   -1.3260   57.2930   77.4820 C   0  0  0  0  0  0  0  0  0  0  0  0
   -1.2720   57.4680   75.9490 C   0  0  1  0  0  0  0  0  0  0  0  0
   -1.3850   58.9860   75.6860 C   0  0  0  0  0  0  0  0  0  0  0  0
   -1.1260   59.3360   74.2340 C   0  0  0  0  0  0  0  0  0  0  0  0
    0.2890   58.9310   73.7820 C   0  0  2  0  0  0  0  0  0  0  0  0
    1.0030   57.9790   74.7970 C   0  0  2  0  0  0  0  0  0  0  0  0
    2.3840   57.5830   74.2040 C   0  0  1  0  0  0  0  0  0  0  0  0
    3.2260   58.8200   73.8550 C   0  0  0  0  0  0  0  0  0  0  0  0
    2.5550   59.8060   72.8640 C   0  0  1  0  0  0  0  0  0  0  0  0
    1.1350   60.1640   73.3640 C   0  0  2  0  0  0  0  0  0  0  0  0
    1.4040   61.1650   74.4970 C   0  0  0  0  0  0  0  0  0  0  0  0
    2.6040   61.9920   74.0290 C   0  0  0  0  0  0  0  0  0  0  0  0
    3.3250   61.1750   72.9330 C   0  0  2  0  0  0  0  0  0  0  0  0
    2.5770   59.1650   71.4620 C   0  0  0  0  0  0  0  0  0  0  0  0
    3.5160   61.9680   71.6640 C   0  0  0  0  0  0  0  0  0  0  0  0
    2.6320   62.8320   71.1640 C   0  0  0  0  0  0  0  0  0  0  0  0
    3.1820   63.3480   69.9130 C   0  0  0  0  0  0  0  0  0  0  0  0
    2.6350   64.1670   69.2000 O   0  0  0  0  0  0  0  0  0  0  0  0
    4.3880   62.7650   69.6860 O   0  0  0  0  0  0  0  0  0  0  0  0
    4.6920   61.8710   70.7620 C   0  0  0  0  0  0  0  0  0  0  0  0
    1.5860   54.9310   75.7090 O   0  0  0  0  0  0  0  0  0  0  0  0
   -2.4800   56.9260   75.3970 O   0  0  0  0  0  0  0  0  0  0  0  0
    3.1480   56.8330   75.1480 O   0  0  0  0  0  0  0  0  0  0  0  0
    0.4390   60.8860   72.3410 O   0  0  0  0  0  0  0  0  0  0  0  0
   -0.3750   55.9540   74.0190 C   0  0  0  0  0  0  0  0  0  0  0  0
   -1.1490   54.8040   74.3330 O   0  0  0  0  0  0  0  0  0  0  0  0
   -2.5700   55.2550   77.6050 O   0  0  0  0  0  0  0  0  0  0  0  0
   -3.6350   55.6400   78.4850 C   0  0  2  0  0  0  0  0  0  0  0  0
   -3.8990   54.5360   79.3570 O   0  0  0  0  0  0  0  0  0  0  0  0
   -4.8200   53.6090   78.7910 C   0  0  1  0  0  0  0  0  0  0  0  0
   -4.7750   52.3370   79.6320 C   0  0  0  0  0  0  0  0  0  0  0  0
   -6.2260   54.2380   78.7900 C   0  0  1  0  0  0  0  0  0  0  0  0
   -6.1860   55.7140   78.3420 C   0  0  2  0  0  0  0  0  0  0  0  0
   -4.8690   56.0770   77.6500 C   0  0  1  0  0  0  0  0  0  0  0  0
   -4.8440   57.5000   77.4150 O   0  0  0  0  0  0  0  0  0  0  0  0
   -6.3500   56.6040   79.4660 O   0  0  0  0  0  0  0  0  0  0  0  0
   -7.1020   53.5130   77.9230 O   0  0  0  0  0  0  0  0  0  0  0  0
    1.2388   56.6160   76.9678 H   0  0  0  0  0  0  0  0  0  0  0  0
   -0.6658   54.2626   76.6282 H   0  0  0  0  0  0  0  0  0  0  0  0
    0.4395   54.6410   78.0440 H   0  0  0  0  0  0  0  0  0  0  0  0
   -1.1061   55.8019   79.0099 H   0  0  0  0  0  0  0  0  0  0  0  0
   -2.2525   57.7556   77.8530 H   0  0  0  0  0  0  0  0  0  0  0  0
   -0.4263   57.7729   77.8946 H   0  0  0  0  0  0  0  0  0  0  0  0
   -2.3987   59.3177   75.9551 H   0  0  0  0  0  0  0  0  0  0  0  0
   -0.6230   59.4924   76.2967 H   0  0  0  0  0  0  0  0  0  0  0  0
   -1.8620   58.8120   73.6065 H   0  0  0  0  0  0  0  0  0  0  0  0
   -1.2150   60.4273   74.1285 H   0  0  0  0  0  0  0  0  0  0  0  0
    0.1776   58.3243   72.8712 H   0  0  0  0  0  0  0  0  0  0  0  0
    1.2383   58.4715   75.7520 H   0  0  0  0  0  0  0  0  0  0  0  0
    2.1686   56.9919   73.3017 H   0  0  0  0  0  0  0  0  0  0  0  0
    3.4380   59.3636   74.7875 H   0  0  0  0  0  0  0  0  0  0  0  0
    4.1314   58.4466   73.3543 H   0  0  0  0  0  0  0  0  0  0  0  0
    0.5286   61.8119   74.6555 H   0  0  0  0  0  0  0  0  0  0  0  0
    1.6028   60.6585   75.4530 H   0  0  0  0  0  0  0  0  0  0  0  0
    2.2616   62.9533   73.6182 H   0  0  0  0  0  0  0  0  0  0  0  0
    3.2832   62.2027   74.8682 H   0  0  0  0  0  0  0  0  0  0  0  0
    4.3767   60.9423   73.1560 H   0  0  0  0  0  0  0  0  0  0  0  0
    2.6146   58.0700   71.5600 H   0  0  0  0  0  0  0  0  0  0  0  0
    1.6684   59.4530   70.9128 H   0  0  0  0  0  0  0  0  0  0  0  0
    3.4637   59.5146   70.9128 H   0  0  0  0  0  0  0  0  0  0  0  0
    1.6653   63.1061   71.6117 H   0  0  0  0  0  0  0  0  0  0  0  0
    5.6089   62.1851   71.2822 H   0  0  0  0  0  0  0  0  0  0  0  0
    4.8719   60.8426   70.4155 H   0  0  0  0  0  0  0  0  0  0  0  0
    2.0642   54.4093   76.4013 H   0  0  0  0  0  0  0  0  0  0  0  0
   -3.0856   56.6543   76.1315 H   0  0  0  0  0  0  0  0  0  0  0  0
    2.8841   57.0921   76.0663 H   0  0  0  0  0  0  0  0  0  0  0  0
   -0.1839   61.5322   72.7588 H   0  0  0  0  0  0  0  0  0  0  0  0
   -0.9570   56.5913   73.3370 H   0  0  0  0  0  0  0  0  0  0  0  0
    0.5605   55.6023   73.5594 H   0  0  0  0  0  0  0  0  0  0  0  0
   -1.2136   54.7081   75.3162 H   0  0  0  0  0  0  0  0  0  0  0  0
   -3.3644   56.5073   79.1051 H   0  0  0  0  0  0  0  0  0  0  0  0
   -4.5605   53.3616   77.7511 H   0  0  0  0  0  0  0  0  0  0  0  0
   -4.7844   52.6026   80.6994 H   0  0  0  0  0  0  0  0  0  0  0  0
   -5.6517   51.7138   79.4015 H   0  0  0  0  0  0  0  0  0  0  0  0
   -3.8565   51.7773   79.4015 H   0  0  0  0  0  0  0  0  0  0  0  0
   -6.6019   54.1905   79.8227 H   0  0  0  0  0  0  0  0  0  0  0  0
   -7.0164   55.8325   77.6304 H   0  0  0  0  0  0  0  0  0  0  0  0
   -4.8136   55.5358   76.6940 H   0  0  0  0  0  0  0  0  0  0  0  0
   -4.8356   57.9776   78.2822 H   0  0  0  0  0  0  0  0  0  0  0  0
   -6.2558   56.0925   80.3084 H   0  0  0  0  0  0  0  0  0  0  0  0
   -7.7401   52.9849   78.4652 H   0  0  0  0  0  0  0  0  0  0  0  0
  2  1  1  0
  3  2  1  0
  4  3  1  0
  5  4  1  0
  6  5  1  0
  6  1  1  0
  7  6  1  0
  8  7  1  0
  9  8  1  0
 10  1  1  0
 10  9  1  0
 11 10  1  0
 12 11  1  0
 13 12  1  0
 14 13  1  0
 14  9  1  0
 15 14  1  0
 16 15  1  0
 17 16  1  0
 17 13  1  0
 13 18  1  6
 19 17  1  0
 20 19  2  0
 21 20  1  0
 22 21  2  0
 23 21  1  0
 24 19  1  0
 24 23  1  0
 25  2  1  0
  6 26  1  6
 27 11  1  0
 14 28  1  6
  1 29  1  6
 30 29  1  0
 31  4  1  0
 32 31  1  0
 33 32  1  0
 34 33  1  0
 35 34  1  0
 36 34  1  0
 37 36  1  0
 38 37  1  0
 38 32  1  0
 39 38  1  0
 40 37  1  0
 41 36  1  0
  2 42  1  1
  3 43  1  0
  3 44  1  0
  4 45  1  1
  5 46  1  0
  5 47  1  0
  7 48  1  0
  7 49  1  0
  8 50  1  0
  8 51  1  0
  9 52  1  6
 10 53  1  1
 11 54  1  6
 12 55  1  0
 12 56  1  0
 15 57  1  0
 15 58  1  0
 16 59  1  0
 16 60  1  0
 17 61  1  1
 18 62  1  0
 18 63  1  0
 18 64  1  0
 20 65  1  0
 24 66  1  0
 24 67  1  0
 25 68  1  0
 26 69  1  0
 27 70  1  0
 28 71  1  0
 29 72  1  0
 29 73  1  0
 30 74  1  0
 32 75  1  1
 34 76  1  6
 35 77  1  0
 35 78  1  0
 35 79  1  0
 36 80  1  1
 37 81  1  6
 38 82  1  6
 39 83  1  0
 40 84  1  0
 41 85  1  0
M  END
>  <score>  (6) 
-7.109

$$$$
=
     RDKit          3D

 85 90  0  0  0  0  0  0  0  0999 V2000
    0.4290   58.8130   74.6120 C   0  0  1  0  0  0  0  0  0  0  0  0
    1.1400   59.9460   75.4390 C   0  0  1  0  0  0  0  0  0  0  0  0
    2.2090   60.7660   74.7070 C   0  0  0  0  0  0  0  0  0  0  0  0
    3.2670   59.9350   73.9960 C   0  0  1  0  0  0  0  0  0  0  0  0
    2.9770   58.4420   74.0800 C   0  0  0  0  0  0  0  0  0  0  0  0
    1.5240   58.0760   73.7090 C   0  0  1  0  0  0  0  0  0  0  0  0
    1.4400   56.5340   73.7730 C   0  0  0  0  0  0  0  0  0  0  0  0
    0.0140   56.0340   73.6470 C   0  0  0  0  0  0  0  0  0  0  0  0
   -0.8870   56.5550   74.7810 C   0  0  2  0  0  0  0  0  0  0  0  0
   -0.2290   57.7170   75.5970 C   0  0  2  0  0  0  0  0  0  0  0  0
   -1.2530   58.2060   76.6590 C   0  0  1  0  0  0  0  0  0  0  0  0
   -1.7380   57.0540   77.5510 C   0  0  0  0  0  0  0  0  0  0  0  0
   -2.3850   55.8670   76.7880 C   0  0  1  0  0  0  0  0  0  0  0  0
   -1.4400   55.3980   75.6570 C   0  0  2  0  0  0  0  0  0  0  0  0
   -0.3650   54.5970   76.4050 C   0  0  0  0  0  0  0  0  0  0  0  0
   -1.1090   53.8780   77.5330 C   0  0  0  0  0  0  0  0  0  0  0  0
   -2.4410   54.6310   77.7570 C   0  0  2  0  0  0  0  0  0  0  0  0
   -3.7730   56.3170   76.2930 C   0  0  0  0  0  0  0  0  0  0  0  0
   -3.6330   53.7100   77.6930 C   0  0  0  0  0  0  0  0  0  0  0  0
   -4.7160   53.8080   78.4650 C   0  0  0  0  0  0  0  0  0  0  0  0
   -5.6080   52.7060   78.1120 C   0  0  0  0  0  0  0  0  0  0  0  0
   -6.6940   52.5030   78.6200 O   0  0  0  0  0  0  0  0  0  0  0  0
   -5.0260   51.9600   77.1380 O   0  0  0  0  0  0  0  0  0  0  0  0
   -3.7600   52.5330   76.7950 C   0  0  0  0  0  0  0  0  0  0  0  0
    0.1930   60.9070   75.9170 O   0  0  0  0  0  0  0  0  0  0  0  0
    1.3290   58.3800   72.3210 O   0  0  0  0  0  0  0  0  0  0  0  0
   -0.6600   59.1660   77.5330 O   0  0  0  0  0  0  0  0  0  0  0  0
   -2.1310   54.4640   74.8180 O   0  0  0  0  0  0  0  0  0  0  0  0
   -0.7120   59.4260   73.7400 C   0  0  0  0  0  0  0  0  0  0  0  0
   -0.2690   60.4890   72.9050 O   0  0  0  0  0  0  0  0  0  0  0  0
    3.3060   60.3000   72.6120 O   0  0  0  0  0  0  0  0  0  0  0  0
    3.8730   61.5930   72.3590 C   0  0  2  0  0  0  0  0  0  0  0  0
    2.7920   62.5180   72.1980 O   0  0  0  0  0  0  0  0  0  0  0  0
    2.3150   62.5620   70.8570 C   0  0  1  0  0  0  0  0  0  0  0  0
    0.9820   63.3050   70.8630 C   0  0  0  0  0  0  0  0  0  0  0  0
    3.3590   63.2780   69.9780 C   0  0  1  0  0  0  0  0  0  0  0  0
    4.7920   62.8150   70.3120 C   0  0  2  0  0  0  0  0  0  0  0  0
    4.8120   61.5180   71.1260 C   0  0  1  0  0  0  0  0  0  0  0  0
    6.1670   61.2460   71.5360 O   0  0  0  0  0  0  0  0  0  0  0  0
    5.5000   63.8180   71.0710 O   0  0  0  0  0  0  0  0  0  0  0  0
    3.1030   63.0350   68.5930 O   0  0  0  0  0  0  0  0  0  0  0  0
    1.6348   59.3690   76.2341 H   0  0  0  0  0  0  0  0  0  0  0  0
    1.7059   61.3950   73.9578 H   0  0  0  0  0  0  0  0  0  0  0  0
    2.7356   61.3498   75.4763 H   0  0  0  0  0  0  0  0  0  0  0  0
    4.2276   60.1354   74.4930 H   0  0  0  0  0  0  0  0  0  0  0  0
    3.6552   57.9162   73.3919 H   0  0  0  0  0  0  0  0  0  0  0  0
    3.1297   58.1408   75.1269 H   0  0  0  0  0  0  0  0  0  0  0  0
    2.0376   56.1120   72.9516 H   0  0  0  0  0  0  0  0  0  0  0  0
    1.8254   56.2144   74.7525 H   0  0  0  0  0  0  0  0  0  0  0  0
   -0.3965   56.3728   72.6843 H   0  0  0  0  0  0  0  0  0  0  0  0
    0.0344   54.9359   73.7092 H   0  0  0  0  0  0  0  0  0  0  0  0
   -1.7667   57.0167   74.3088 H   0  0  0  0  0  0  0  0  0  0  0  0
    0.6445   57.3902   76.1803 H   0  0  0  0  0  0  0  0  0  0  0  0
   -2.0919   58.6398   76.0950 H   0  0  0  0  0  0  0  0  0  0  0  0
   -0.8741   56.6693   78.1128 H   0  0  0  0  0  0  0  0  0  0  0  0
   -2.5244   57.4724   78.1963 H   0  0  0  0  0  0  0  0  0  0  0  0
    0.1110   53.8687   75.7319 H   0  0  0  0  0  0  0  0  0  0  0  0
    0.4359   55.2453   76.7900 H   0  0  0  0  0  0  0  0  0  0  0  0
   -1.3095   52.8350   77.2469 H   0  0  0  0  0  0  0  0  0  0  0  0
   -0.5067   53.8689   78.4534 H   0  0  0  0  0  0  0  0  0  0  0  0
   -2.5757   55.0252   78.7750 H   0  0  0  0  0  0  0  0  0  0  0  0
   -4.4202   56.5268   77.1573 H   0  0  0  0  0  0  0  0  0  0  0  0
   -3.6678   57.2271   75.6841 H   0  0  0  0  0  0  0  0  0  0  0  0
   -4.2218   55.5183   75.6841 H   0  0  0  0  0  0  0  0  0  0  0  0
   -4.9035   54.5778   79.2281 H   0  0  0  0  0  0  0  0  0  0  0  0
   -3.7465   52.8447   75.7402 H   0  0  0  0  0  0  0  0  0  0  0  0
   -2.9303   51.8210   76.9162 H   0  0  0  0  0  0  0  0  0  0  0  0
    0.1935   60.9065   76.9070 H   0  0  0  0  0  0  0  0  0  0  0  0
    0.7964   59.2103   72.2367 H   0  0  0  0  0  0  0  0  0  0  0  0
   -0.8233   58.9017   78.4730 H   0  0  0  0  0  0  0  0  0  0  0  0
   -2.6151   53.8096   75.3815 H   0  0  0  0  0  0  0  0  0  0  0  0
   -1.1304   58.6324   73.1035 H   0  0  0  0  0  0  0  0  0  0  0  0
   -1.4624   59.8418   74.4285 H   0  0  0  0  0  0  0  0  0  0  0  0
    0.0445   61.2413   73.4669 H   0  0  0  0  0  0  0  0  0  0  0  0
    4.4970   61.9407   73.1955 H   0  0  0  0  0  0  0  0  0  0  0  0
    2.1628   61.5532   70.4457 H   0  0  0  0  0  0  0  0  0  0  0  0
    0.6653   63.4815   71.9015 H   0  0  0  0  0  0  0  0  0  0  0  0
    1.0972   64.2690   70.3459 H   0  0  0  0  0  0  0  0  0  0  0  0
    0.2227   62.7000   70.3459 H   0  0  0  0  0  0  0  0  0  0  0  0
    3.2755   64.3546   70.1878 H   0  0  0  0  0  0  0  0  0  0  0  0
    5.2826   62.6442   69.3424 H   0  0  0  0  0  0  0  0  0  0  0  0
    4.4395   60.6999   70.4921 H   0  0  0  0  0  0  0  0  0  0  0  0
    6.2169   61.2360   72.5247 H   0  0  0  0  0  0  0  0  0  0  0  0
    5.3788   63.6463   72.0384 H   0  0  0  0  0  0  0  0  0  0  0  0
    2.3879   62.3562   68.5037 H   0  0  0  0  0  0  0  0  0  0  0  0
  2  1  1  0
  3  2  1  0
  4  3  1  0
  5  4  1  0
  6  5  1  0
  6  1  1  0
  7  6  1  0
  8  7  1  0
  9  8  1  0
 10  1  1  0
 10  9  1  0
 11 10  1  0
 12 11  1  0
 13 12  1  0
 14 13  1  0
 14  9  1  0
 15 14  1  0
 16 15  1  0
 17 16  1  0
 17 13  1  0
 13 18  1  6
 19 17  1  0
 20 19  2  0
 21 20  1  0
 22 21  2  0
 23 21  1  0
 24 19  1  0
 24 23  1  0
 25  2  1  0
  6 26  1  6
 27 11  1  0
 14 28  1  6
  1 29  1  6
 30 29  1  0
 31  4  1  0
 32 31  1  0
 33 32  1  0
 34 33  1  0
 35 34  1  0
 36 34  1  0
 37 36  1  0
 38 37  1  0
 38 32  1  0
 39 38  1  0
 40 37  1  0
 41 36  1  0
  2 42  1  1
  3 43  1  0
  3 44  1  0
  4 45  1  1
  5 46  1  0
  5 47  1  0
  7 48  1  0
  7 49  1  0
  8 50  1  0
  8 51  1  0
  9 52  1  6
 10 53  1  1
 11 54  1  6
 12 55  1  0
 12 56  1  0
 15 57  1  0
 15 58  1  0
 16 59  1  0
 16 60  1  0
 17 61  1  1
 18 62  1  0
 18 63  1  0
 18 64  1  0
 20 65  1  0
 24 66  1  0
 24 67  1  0
 25 68  1  0
 26 69  1  0
 27 70  1  0
 28 71  1  0
 29 72  1  0
 29 73  1  0
 30 74  1  0
 32 75  1  1
 34 76  1  6
 35 77  1  0
 35 78  1  0
 35 79  1  0
 36 80  1  6
 37 81  1  6
 38 82  1  6
 39 83  1  0
 40 84  1  0
 41 85  1  0
M  END
>  <score>  (7) 
-7.101

$$$$
=
     RDKit          3D

 85 90  0  0  0  0  0  0  0  0999 V2000
   -0.8280   59.2870   75.1090 C   0  0  1  0  0  0  0  0  0  0  0  0
   -0.0830   58.1100   74.3790 C   0  0  1  0  0  0  0  0  0  0  0  0
    1.3060   58.4210   73.8100 C   0  0  0  0  0  0  0  0  0  0  0  0
    1.3680   59.6640   72.9340 C   0  0  1  0  0  0  0  0  0  0  0  0
    0.0360   60.4030   72.8910 C   0  0  0  0  0  0  0  0  0  0  0  0
   -0.5840   60.6360   74.2860 C   0  0  1  0  0  0  0  0  0  0  0  0
   -1.8720   61.4570   74.0510 C   0  0  0  0  0  0  0  0  0  0  0  0
   -2.7100   61.5770   75.3090 C   0  0  0  0  0  0  0  0  0  0  0  0
   -3.1700   60.2050   75.8330 C   0  0  2  0  0  0  0  0  0  0  0  0
   -2.4170   59.0110   75.1610 C   0  0  2  0  0  0  0  0  0  0  0  0
   -2.9110   57.6920   75.8170 C   0  0  1  0  0  0  0  0  0  0  0  0
   -4.4380   57.5540   75.7320 C   0  0  0  0  0  0  0  0  0  0  0  0
   -5.2350   58.7230   76.3710 C   0  0  1  0  0  0  0  0  0  0  0  0
   -4.7180   60.0710   75.8150 C   0  0  2  0  0  0  0  0  0  0  0  0
   -5.3450   60.1380   74.4160 C   0  0  0  0  0  0  0  0  0  0  0  0
   -6.7360   59.5150   74.5660 C   0  0  0  0  0  0  0  0  0  0  0  0
   -6.7160   58.6530   75.8490 C   0  0  2  0  0  0  0  0  0  0  0  0
   -5.1210   58.5980   77.9030 C   0  0  0  0  0  0  0  0  0  0  0  0
   -7.8370   59.0110   76.7920 C   0  0  0  0  0  0  0  0  0  0  0  0
   -8.5410   58.1330   77.5090 C   0  0  0  0  0  0  0  0  0  0  0  0
   -9.5490   58.8840   78.2530 C   0  0  0  0  0  0  0  0  0  0  0  0
  -10.3580   58.3900   79.0160 O   0  0  0  0  0  0  0  0  0  0  0  0
   -9.4320   60.2030   77.9520 O   0  0  0  0  0  0  0  0  0  0  0  0
   -8.3520   60.3840   77.0300 C   0  0  0  0  0  0  0  0  0  0  0  0
    0.1130   56.9990   75.2590 O   0  0  0  0  0  0  0  0  0  0  0  0
    0.2740   61.5280   75.0100 O   0  0  0  0  0  0  0  0  0  0  0  0
   -2.3690   56.5540   75.1450 O   0  0  0  0  0  0  0  0  0  0  0  0
   -5.2910   61.1460   76.5690 O   0  0  0  0  0  0  0  0  0  0  0  0
   -0.3110   59.4140   76.5770 C   0  0  0  0  0  0  0  0  0  0  0  0
    1.1060   59.4790   76.6700 O   0  0  0  0  0  0  0  0  0  0  0  0
    2.3540   60.5620   73.4550 O   0  0  0  0  0  0  0  0  0  0  0  0
    3.4760   60.7720   72.5870 C   0  0  2  0  0  0  0  0  0  0  0  0
    3.5030   62.1600   72.2390 O   0  0  0  0  0  0  0  0  0  0  0  0
    2.6860   62.4490   71.1080 C   0  0  1  0  0  0  0  0  0  0  0  0
    2.5220   63.9630   71.0280 C   0  0  0  0  0  0  0  0  0  0  0  0
    3.3660   61.8850   69.8450 C   0  0  1  0  0  0  0  0  0  0  0  0
    3.9370   60.4740   70.0910 C   0  0  2  0  0  0  0  0  0  0  0  0
    3.3700   59.8280   71.3590 C   0  0  1  0  0  0  0  0  0  0  0  0
    4.0720   58.5930   71.6070 O   0  0  0  0  0  0  0  0  0  0  0  0
    5.3730   60.5080   70.2220 O   0  0  0  0  0  0  0  0  0  0  0  0
    2.4390   61.8280   68.7580 O   0  0  0  0  0  0  0  0  0  0  0  0
   -0.7599   57.9022   73.5372 H   0  0  0  0  0  0  0  0  0  0  0  0
    1.9988   58.5604   74.6530 H   0  0  0  0  0  0  0  0  0  0  0  0
    1.5762   57.5716   73.1655 H   0  0  0  0  0  0  0  0  0  0  0  0
    1.6208   59.3339   71.9156 H   0  0  0  0  0  0  0  0  0  0  0  0
    0.1955   61.3808   72.4131 H   0  0  0  0  0  0  0  0  0  0  0  0
   -0.6661   59.7723   72.3259 H   0  0  0  0  0  0  0  0  0  0  0  0
   -1.5927   62.4660   73.7134 H   0  0  0  0  0  0  0  0  0  0  0  0
   -2.4730   60.9341   73.2925 H   0  0  0  0  0  0  0  0  0  0  0  0
   -2.1110   62.0713   76.0880 H   0  0  0  0  0  0  0  0  0  0  0  0
   -3.6076   62.1631   75.0627 H   0  0  0  0  0  0  0  0  0  0  0  0
   -2.8779   60.1488   76.8920 H   0  0  0  0  0  0  0  0  0  0  0  0
   -2.6581   58.8992   74.0936 H   0  0  0  0  0  0  0  0  0  0  0  0
   -2.5823   57.7336   76.8659 H   0  0  0  0  0  0  0  0  0  0  0  0
   -4.7170   57.4902   74.6699 H   0  0  0  0  0  0  0  0  0  0  0  0
   -4.6993   56.6521   76.3050 H   0  0  0  0  0  0  0  0  0  0  0  0
   -5.4248   61.1821   74.0792 H   0  0  0  0  0  0  0  0  0  0  0  0
   -4.7368   59.6079   73.6683 H   0  0  0  0  0  0  0  0  0  0  0  0
   -7.4953   60.3059   74.6553 H   0  0  0  0  0  0  0  0  0  0  0  0
   -6.9854   58.9015   73.6877 H   0  0  0  0  0  0  0  0  0  0  0  0
   -6.9512   57.5906   75.6877 H   0  0  0  0  0  0  0  0  0  0  0  0
   -5.7885   59.3299   78.3813 H   0  0  0  0  0  0  0  0  0  0  0  0
   -5.4102   57.5822   78.2105 H   0  0  0  0  0  0  0  0  0  0  0  0
   -4.0830   58.7927   78.2105 H   0  0  0  0  0  0  0  0  0  0  0  0
   -8.3900   57.0437   77.5350 H   0  0  0  0  0  0  0  0  0  0  0  0
   -7.5702   61.0230   77.4665 H   0  0  0  0  0  0  0  0  0  0  0  0
   -8.6715   60.8794   76.1013 H   0  0  0  0  0  0  0  0  0  0  0  0
    0.0585   57.3081   76.1979 H   0  0  0  0  0  0  0  0  0  0  0  0
    0.1447   61.3936   75.9823 H   0  0  0  0  0  0  0  0  0  0  0  0
   -2.0550   55.8947   75.8134 H   0  0  0  0  0  0  0  0  0  0  0  0
   -5.1919   60.9601   77.5363 H   0  0  0  0  0  0  0  0  0  0  0  0
   -0.7323   60.3296   77.0176 H   0  0  0  0  0  0  0  0  0  0  0  0
   -0.6319   58.5098   77.1150 H   0  0  0  0  0  0  0  0  0  0  0  0
    1.3739   59.4913   77.6230 H   0  0  0  0  0  0  0  0  0  0  0  0
    4.4288   60.5254   73.0782 H   0  0  0  0  0  0  0  0  0  0  0  0
    1.6925   61.9845   71.1936 H   0  0  0  0  0  0  0  0  0  0  0  0
    2.4767   64.3811   72.0444 H   0  0  0  0  0  0  0  0  0  0  0  0
    3.3784   64.3967   70.4909 H   0  0  0  0  0  0  0  0  0  0  0  0
    1.5926   64.2033   70.4909 H   0  0  0  0  0  0  0  0  0  0  0  0
    4.1944   62.5635   69.5931 H   0  0  0  0  0  0  0  0  0  0  0  0
    3.6426   59.8774   69.2150 H   0  0  0  0  0  0  0  0  0  0  0  0
    2.2998   59.6275   71.2026 H   0  0  0  0  0  0  0  0  0  0  0  0
    4.1533   58.4499   72.5832 H   0  0  0  0  0  0  0  0  0  0  0  0
    5.6168   60.5138   71.1815 H   0  0  0  0  0  0  0  0  0  0  0  0
    1.5167   61.7713   69.1134 H   0  0  0  0  0  0  0  0  0  0  0  0
  2  1  1  0
  3  2  1  0
  4  3  1  0
  5  4  1  0
  6  5  1  0
  6  1  1  0
  7  6  1  0
  8  7  1  0
  9  8  1  0
 10  1  1  0
 10  9  1  0
 11 10  1  0
 12 11  1  0
 13 12  1  0
 14 13  1  0
 14  9  1  0
 15 14  1  0
 16 15  1  0
 17 16  1  0
 17 13  1  0
 13 18  1  1
 19 17  1  0
 20 19  2  0
 21 20  1  0
 22 21  2  0
 23 21  1  0
 24 19  1  0
 24 23  1  0
 25  2  1  0
  6 26  1  1
 27 11  1  0
 14 28  1  1
  1 29  1  1
 30 29  1  0
 31  4  1  0
 32 31  1  0
 33 32  1  0
 34 33  1  0
 35 34  1  0
 36 34  1  0
 37 36  1  0
 38 37  1  0
 38 32  1  0
 39 38  1  0
 40 37  1  0
 41 36  1  0
  2 42  1  6
  3 43  1  0
  3 44  1  0
  4 45  1  6
  5 46  1  0
  5 47  1  0
  7 48  1  0
  7 49  1  0
  8 50  1  0
  8 51  1  0
  9 52  1  1
 10 53  1  6
 11 54  1  1
 12 55  1  0
 12 56  1  0
 15 57  1  0
 15 58  1  0
 16 59  1  0
 16 60  1  0
 17 61  1  6
 18 62  1  0
 18 63  1  0
 18 64  1  0
 20 65  1  0
 24 66  1  0
 24 67  1  0
 25 68  1  0
 26 69  1  0
 27 70  1  0
 28 71  1  0
 29 72  1  0
 29 73  1  0
 30 74  1  0
 32 75  1  1
 34 76  1  1
 35 77  1  0
 35 78  1  0
 35 79  1  0
 36 80  1  6
 37 81  1  6
 38 82  1  6
 39 83  1  0
 40 84  1  0
 41 85  1  0
M  END
>  <score>  (8) 
-7.08

$$$$
=
     RDKit          3D

 85 90  0  0  0  0  0  0  0  0999 V2000
   -1.3510   58.3930   75.6860 C   0  0  1  0  0  0  0  0  0  0  0  0
   -1.0610   57.8570   77.1360 C   0  0  1  0  0  0  0  0  0  0  0  0
   -2.2620   57.3270   77.9270 C   0  0  0  0  0  0  0  0  0  0  0  0
   -3.4530   58.2710   77.9800 C   0  0  1  0  0  0  0  0  0  0  0  0
   -3.2330   59.5210   77.1350 C   0  0  0  0  0  0  0  0  0  0  0  0
   -2.7210   59.2180   75.7110 C   0  0  1  0  0  0  0  0  0  0  0  0
   -2.6340   60.5800   74.9870 C   0  0  0  0  0  0  0  0  0  0  0  0
   -1.9360   60.4710   73.6450 C   0  0  0  0  0  0  0  0  0  0  0  0
   -0.4880   59.9700   73.7830 C   0  0  2  0  0  0  0  0  0  0  0  0
   -0.1760   59.3860   75.2000 C   0  0  2  0  0  0  0  0  0  0  0  0
    1.2820   58.8500   75.1960 C   0  0  1  0  0  0  0  0  0  0  0  0
    2.2830   59.9330   74.7660 C   0  0  0  0  0  0  0  0  0  0  0  0
    2.0090   60.5570   73.3720 C   0  0  1  0  0  0  0  0  0  0  0  0
    0.5370   61.0280   73.2920 C   0  0  2  0  0  0  0  0  0  0  0  0
    0.5410   62.3320   74.1020 C   0  0  0  0  0  0  0  0  0  0  0  0
    1.8860   62.9960   73.7930 C   0  0  0  0  0  0  0  0  0  0  0  0
    2.8300   61.8930   73.2600 C   0  0  2  0  0  0  0  0  0  0  0  0
    2.3880   59.5170   72.3000 C   0  0  0  0  0  0  0  0  0  0  0  0
    3.4430   62.2610   71.9320 C   0  0  0  0  0  0  0  0  0  0  0  0
    2.7730   62.7680   70.8960 C   0  0  0  0  0  0  0  0  0  0  0  0
    3.7240   62.9410   69.8020 C   0  0  0  0  0  0  0  0  0  0  0  0
    3.4470   63.3930   68.7070 O   0  0  0  0  0  0  0  0  0  0  0  0
    4.9490   62.5160   70.2070 O   0  0  0  0  0  0  0  0  0  0  0  0
    4.8700   62.0710   71.5650 C   0  0  0  0  0  0  0  0  0  0  0  0
   -0.1240   56.7750   77.1080 O   0  0  0  0  0  0  0  0  0  0  0  0
   -3.7540   58.5130   75.0080 O   0  0  0  0  0  0  0  0  0  0  0  0
    1.6770   58.4380   76.5050 O   0  0  0  0  0  0  0  0  0  0  0  0
    0.2280   61.3900   71.9410 O   0  0  0  0  0  0  0  0  0  0  0  0
   -1.4220   57.1990   74.6820 C   0  0  0  0  0  0  0  0  0  0  0  0
   -2.2300   56.1240   75.1440 O   0  0  0  0  0  0  0  0  0  0  0  0
   -4.6140   57.6000   77.4790 O   0  0  0  0  0  0  0  0  0  0  0  0
   -5.8560   58.2120   77.8510 C   0  0  2  0  0  0  0  0  0  0  0  0
   -6.5850   57.2700   78.6450 O   0  0  0  0  0  0  0  0  0  0  0  0
   -7.3620   56.3810   77.8490 C   0  0  1  0  0  0  0  0  0  0  0  0
   -7.8220   55.2360   78.7460 C   0  0  0  0  0  0  0  0  0  0  0  0
   -8.5580   57.1550   77.2600 C   0  0  1  0  0  0  0  0  0  0  0  0
   -8.1340   58.5440   76.7410 C   0  0  2  0  0  0  0  0  0  0  0  0
   -6.6160   58.6660   76.5750 C   0  0  1  0  0  0  0  0  0  0  0  0
   -6.2920   60.0330   76.2510 O   0  0  0  0  0  0  0  0  0  0  0  0
   -8.5620   59.5890   77.6390 O   0  0  0  0  0  0  0  0  0  0  0  0
   -9.1540   56.4200   76.1880 O   0  0  0  0  0  0  0  0  0  0  0  0
   -0.6887   58.7605   77.6411 H   0  0  0  0  0  0  0  0  0  0  0  0
   -2.5908   56.3860   77.4617 H   0  0  0  0  0  0  0  0  0  0  0  0
   -1.9195   57.1995   78.9645 H   0  0  0  0  0  0  0  0  0  0  0  0
   -3.5832   58.5726   79.0298 H   0  0  0  0  0  0  0  0  0  0  0  0
   -4.1887   60.0596   77.0543 H   0  0  0  0  0  0  0  0  0  0  0  0
   -2.4586   60.1194   77.6372 H   0  0  0  0  0  0  0  0  0  0  0  0
   -3.6531   60.9617   74.8265 H   0  0  0  0  0  0  0  0  0  0  0  0
   -2.0464   61.2620   75.6192 H   0  0  0  0  0  0  0  0  0  0  0  0
   -2.4954   59.7677   73.0107 H   0  0  0  0  0  0  0  0  0  0  0  0
   -1.9050   61.4754   73.1975 H   0  0  0  0  0  0  0  0  0  0  0  0
   -0.3773   59.1109   73.1050 H   0  0  0  0  0  0  0  0  0  0  0  0
   -0.1901   60.1505   75.9908 H   0  0  0  0  0  0  0  0  0  0  0  0
    1.2935   58.0076   74.4888 H   0  0  0  0  0  0  0  0  0  0  0  0
    2.2559   60.7398   75.5132 H   0  0  0  0  0  0  0  0  0  0  0  0
    3.2629   59.4382   74.6961 H   0  0  0  0  0  0  0  0  0  0  0  0
   -0.2900   62.9817   73.7902 H   0  0  0  0  0  0  0  0  0  0  0  0
    0.4133   62.1462   75.1786 H   0  0  0  0  0  0  0  0  0  0  0  0
    1.7536   63.7788   73.0316 H   0  0  0  0  0  0  0  0  0  0  0  0
    2.3053   63.4660   74.6948 H   0  0  0  0  0  0  0  0  0  0  0  0
    3.7495   61.7571   73.8483 H   0  0  0  0  0  0  0  0  0  0  0  0
    2.7252   58.5916   72.7899 H   0  0  0  0  0  0  0  0  0  0  0  0
    1.5108   59.3009   71.6724 H   0  0  0  0  0  0  0  0  0  0  0  0
    3.1985   59.9160   71.6724 H   0  0  0  0  0  0  0  0  0  0  0  0
    1.7005   63.0112   70.8706 H   0  0  0  0  0  0  0  0  0  0  0  0
    5.5224   62.6760   72.2117 H   0  0  0  0  0  0  0  0  0  0  0  0
    5.1992   61.0283   71.6850 H   0  0  0  0  0  0  0  0  0  0  0  0
    0.1039   56.5118   78.0347 H   0  0  0  0  0  0  0  0  0  0  0  0
   -4.3694   58.0930   75.6599 H   0  0  0  0  0  0  0  0  0  0  0  0
    1.1762   58.9604   77.1806 H   0  0  0  0  0  0  0  0  0  0  0  0
   -0.4147   62.1430   71.9399 H   0  0  0  0  0  0  0  0  0  0  0  0
   -1.8382   57.5656   73.7321 H   0  0  0  0  0  0  0  0  0  0  0  0
   -0.3995   56.8111   74.5637 H   0  0  0  0  0  0  0  0  0  0  0  0
   -2.2353   56.1169   76.1340 H   0  0  0  0  0  0  0  0  0  0  0  0
   -5.7045   59.1196   78.4538 H   0  0  0  0  0  0  0  0  0  0  0  0
   -6.7798   55.9694   77.0114 H   0  0  0  0  0  0  0  0  0  0  0  0
   -7.7052   55.5266   79.8005 H   0  0  0  0  0  0  0  0  0  0  0  0
   -8.8796   55.0127   78.5422 H   0  0  0  0  0  0  0  0  0  0  0  0
   -7.2128   54.3431   78.5422 H   0  0  0  0  0  0  0  0  0  0  0  0
   -9.2886   57.2881   78.0715 H   0  0  0  0  0  0  0  0  0  0  0  0
   -8.6179   58.6556   75.7595 H   0  0  0  0  0  0  0  0  0  0  0  0
   -6.2961   58.0001   75.7600 H   0  0  0  0  0  0  0  0  0  0  0  0
   -6.1695   60.5500   77.0863 H   0  0  0  0  0  0  0  0  0  0  0  0
   -8.4397   59.2904   78.5749 H   0  0  0  0  0  0  0  0  0  0  0  0
   -9.7323   55.7069   76.5583 H   0  0  0  0  0  0  0  0  0  0  0  0
  2  1  1  0
  3  2  1  0
  4  3  1  0
  5  4  1  0
  6  5  1  0
  6  1  1  0
  7  6  1  0
  8  7  1  0
  9  8  1  0
 10  1  1  0
 10  9  1  0
 11 10  1  0
 12 11  1  0
 13 12  1  0
 14 13  1  0
 14  9  1  0
 15 14  1  0
 16 15  1  0
 17 16  1  0
 17 13  1  0
 13 18  1  6
 19 17  1  0
 20 19  2  0
 21 20  1  0
 22 21  2  0
 23 21  1  0
 24 19  1  0
 24 23  1  0
 25  2  1  0
  6 26  1  6
 27 11  1  0
 14 28  1  6
  1 29  1  6
 30 29  1  0
 31  4  1  0
 32 31  1  0
 33 32  1  0
 34 33  1  0
 35 34  1  0
 36 34  1  0
 37 36  1  0
 38 37  1  0
 38 32  1  0
 39 38  1  0
 40 37  1  0
 41 36  1  0
  2 42  1  1
  3 43  1  0
  3 44  1  0
  4 45  1  1
  5 46  1  0
  5 47  1  0
  7 48  1  0
  7 49  1  0
  8 50  1  0
  8 51  1  0
  9 52  1  6
 10 53  1  1
 11 54  1  6
 12 55  1  0
 12 56  1  0
 15 57  1  0
 15 58  1  0
 16 59  1  0
 16 60  1  0
 17 61  1  1
 18 62  1  0
 18 63  1  0
 18 64  1  0
 20 65  1  0
 24 66  1  0
 24 67  1  0
 25 68  1  0
 26 69  1  0
 27 70  1  0
 28 71  1  0
 29 72  1  0
 29 73  1  0
 30 74  1  0
 32 75  1  1
 34 76  1  6
 35 77  1  0
 35 78  1  0
 35 79  1  0
 36 80  1  1
 37 81  1  6
 38 82  1  6
 39 83  1  0
 40 84  1  0
 41 85  1  0
M  END
>  <score>  (9) 
-6.799

$$$$
