=
     RDKit          3D

 25 26  0  0  0  0  0  0  0  0999 V2000
    0.9830   68.6330   64.6130 S   0  0  0  0  0  0  0  0  0  0  0  0
    5.8680   69.1790   62.2450 Cl  0  0  0  0  0  0  0  0  0  0  0  0
    4.6710   68.1670   62.9530 C   0  0  0  0  0  0  0  0  0  0  0  0
    3.4880   68.7310   63.4330 C   0  0  0  0  0  0  0  0  0  0  0  0
    2.5070   67.9140   64.0050 C   0  0  0  0  0  0  0  0  0  0  0  0
    2.7340   66.5330   64.1050 C   0  0  0  0  0  0  0  0  0  0  0  0
    3.9230   65.9770   63.6180 C   0  0  0  0  0  0  0  0  0  0  0  0
    4.8930   66.7950   63.0410 C   0  0  0  0  0  0  0  0  0  0  0  0
    4.2290   64.2820   63.7160 Cl  0  0  0  0  0  0  0  0  0  0  0  0
    1.7920   65.7130   64.6720 O   0  0  0  0  0  0  0  0  0  0  0  0
    1.2440   68.5180   66.3800 C   0  0  0  0  0  0  0  0  0  0  0  0
    2.1720   69.3550   67.0080 C   0  0  0  0  0  0  0  0  0  0  0  0
    2.3790   69.2580   68.3850 C   0  0  0  0  0  0  0  0  0  0  0  0
    3.5290   70.2860   69.1450 Cl  0  0  0  0  0  0  0  0  0  0  0  0
    1.6660   68.3380   69.1490 C   0  0  0  0  0  0  0  0  0  0  0  0
    0.7330   67.5070   68.5310 C   0  0  0  0  0  0  0  0  0  0  0  0
    0.5150   67.5980   67.1510 C   0  0  0  0  0  0  0  0  0  0  0  0
   -0.1380   66.3800   69.5060 Cl  0  0  0  0  0  0  0  0  0  0  0  0
   -0.4090   66.7750   66.5620 O   0  0  0  0  0  0  0  0  0  0  0  0
    3.3272   69.8168   63.3616 H   0  0  0  0  0  0  0  0  0  0  0  0
    5.8277   66.3597   62.6577 H   0  0  0  0  0  0  0  0  0  0  0  0
    1.9591   64.7395   64.7392 H   0  0  0  0  0  0  0  0  0  0  0  0
    2.7386   70.0896   66.4169 H   0  0  0  0  0  0  0  0  0  0  0  0
    1.8378   68.2674   70.2332 H   0  0  0  0  0  0  0  0  0  0  0  0
   -0.5713   66.8307   65.5870 H   0  0  0  0  0  0  0  0  0  0  0  0
  3  2  1  0
  4  3  2  0
  5  4  1  0
  5  1  1  0
  6  5  2  0
  7  6  1  0
  8  7  2  0
  8  3  1  0
  9  7  1  0
 10  6  1  0
 11  1  1  0
 12 11  2  0
 13 12  1  0
 14 13  1  0
 15 13  2  0
 16 15  1  0
 17 16  2  0
 17 11  1  0
 18 16  1  0
 19 17  1  0
  4 20  1  0
  8 21  1  0
 10 22  1  0
 12 23  1  0
 15 24  1  0
 19 25  1  0
M  END
>  <score>  (1) 
-7.924

$$$$
=
     RDKit          3D

 25 26  0  0  0  0  0  0  0  0999 V2000
    0.9740   68.6360   64.5990 S   0  0  0  0  0  0  0  0  0  0  0  0
    3.5180   70.2830   69.1350 Cl  0  0  0  0  0  0  0  0  0  0  0  0
    2.3670   69.2560   68.3730 C   0  0  0  0  0  0  0  0  0  0  0  0
    2.1620   69.3550   66.9960 C   0  0  0  0  0  0  0  0  0  0  0  0
    1.2330   68.5190   66.3670 C   0  0  0  0  0  0  0  0  0  0  0  0
    0.5040   67.6000   67.1370 C   0  0  0  0  0  0  0  0  0  0  0  0
    0.7190   67.5070   68.5160 C   0  0  0  0  0  0  0  0  0  0  0  0
    1.6520   68.3360   69.1360 C   0  0  0  0  0  0  0  0  0  0  0  0
   -0.1530   66.3800   69.4880 Cl  0  0  0  0  0  0  0  0  0  0  0  0
   -0.4210   66.7770   66.5440 O   0  0  0  0  0  0  0  0  0  0  0  0
    2.5020   67.9280   63.9920 C   0  0  0  0  0  0  0  0  0  0  0  0
    3.4770   68.7510   63.4180 C   0  0  0  0  0  0  0  0  0  0  0  0
    4.6650   68.1950   62.9410 C   0  0  0  0  0  0  0  0  0  0  0  0
    5.8530   69.2160   62.2290 Cl  0  0  0  0  0  0  0  0  0  0  0  0
    4.8980   66.8250   63.0310 C   0  0  0  0  0  0  0  0  0  0  0  0
    3.9340   66.0010   63.6100 C   0  0  0  0  0  0  0  0  0  0  0  0
    2.7410   66.5480   64.0950 C   0  0  0  0  0  0  0  0  0  0  0  0
    4.2530   64.3080   63.7110 Cl  0  0  0  0  0  0  0  0  0  0  0  0
    1.8060   65.7220   64.6640 O   0  0  0  0  0  0  0  0  0  0  0  0
    2.7301   70.0893   66.4060 H   0  0  0  0  0  0  0  0  0  0  0  0
    1.8225   68.2642   70.2203 H   0  0  0  0  0  0  0  0  0  0  0  0
   -0.9322   66.1306   67.0926 H   0  0  0  0  0  0  0  0  0  0  0  0
    3.3074   69.8352   63.3427 H   0  0  0  0  0  0  0  0  0  0  0  0
    5.8358   66.3962   62.6481 H   0  0  0  0  0  0  0  0  0  0  0  0
    0.9584   66.0984   65.0104 H   0  0  0  0  0  0  0  0  0  0  0  0
  3  2  1  0
  4  3  2  0
  5  4  1  0
  5  1  1  0
  6  5  2  0
  7  6  1  0
  8  7  2  0
  8  3  1  0
  9  7  1  0
 10  6  1  0
 11  1  1  0
 12 11  2  0
 13 12  1  0
 14 13  1  0
 15 13  2  0
 16 15  1  0
 17 16  2  0
 17 11  1  0
 18 16  1  0
 19 17  1  0
  4 20  1  0
  8 21  1  0
 10 22  1  0
 12 23  1  0
 15 24  1  0
 19 25  1  0
M  END
>  <score>  (2) 
-7.922

$$$$
=
     RDKit          3D

 25 26  0  0  0  0  0  0  0  0999 V2000
    3.5680   67.8190   63.8970 S   0  0  0  0  0  0  0  0  0  0  0  0
   -1.5900   68.7500   65.4120 Cl  0  0  0  0  0  0  0  0  0  0  0  0
   -0.3700   68.8050   64.2010 C   0  0  0  0  0  0  0  0  0  0  0  0
    0.9180   68.3610   64.5010 C   0  0  0  0  0  0  0  0  0  0  0  0
    1.9150   68.3970   63.5190 C   0  0  0  0  0  0  0  0  0  0  0  0
    1.6070   68.8970   62.2440 C   0  0  0  0  0  0  0  0  0  0  0  0
    0.3110   69.3360   61.9540 C   0  0  0  0  0  0  0  0  0  0  0  0
   -0.6800   69.2900   62.9320 C   0  0  0  0  0  0  0  0  0  0  0  0
   -0.1020   69.9460   60.3930 Cl  0  0  0  0  0  0  0  0  0  0  0  0
    2.5710   68.9520   61.2690 O   0  0  0  0  0  0  0  0  0  0  0  0
    3.9040   68.7370   65.3980 C   0  0  0  0  0  0  0  0  0  0  0  0
    2.8650   69.0330   66.2860 C   0  0  0  0  0  0  0  0  0  0  0  0
    3.1290   69.7540   67.4510 C   0  0  0  0  0  0  0  0  0  0  0  0
    1.8420   70.1210   68.5320 Cl  0  0  0  0  0  0  0  0  0  0  0  0
    4.4210   70.1820   67.7480 C   0  0  0  0  0  0  0  0  0  0  0  0
    5.4620   69.8810   66.8710 C   0  0  0  0  0  0  0  0  0  0  0  0
    5.2090   69.1550   65.7010 C   0  0  0  0  0  0  0  0  0  0  0  0
    7.0530   70.4200   67.2680 Cl  0  0  0  0  0  0  0  0  0  0  0  0
    6.2470   68.8670   64.8530 O   0  0  0  0  0  0  0  0  0  0  0  0
    1.1498   67.9832   65.5077 H   0  0  0  0  0  0  0  0  0  0  0  0
   -1.6997   69.6340   62.7042 H   0  0  0  0  0  0  0  0  0  0  0  0
    2.3478   69.3056   60.3717 H   0  0  0  0  0  0  0  0  0  0  0  0
    1.8406   68.6977   66.0662 H   0  0  0  0  0  0  0  0  0  0  0  0
    4.6182   70.7530   68.6673 H   0  0  0  0  0  0  0  0  0  0  0  0
    6.0802   68.3543   64.0227 H   0  0  0  0  0  0  0  0  0  0  0  0
  3  2  1  0
  4  3  2  0
  5  4  1  0
  5  1  1  0
  6  5  2  0
  7  6  1  0
  8  7  2  0
  8  3  1  0
  9  7  1  0
 10  6  1  0
 11  1  1  0
 12 11  2  0
 13 12  1  0
 14 13  1  0
 15 13  2  0
 16 15  1  0
 17 16  2  0
 17 11  1  0
 18 16  1  0
 19 17  1  0
  4 20  1  0
  8 21  1  0
 10 22  1  0
 12 23  1  0
 15 24  1  0
 19 25  1  0
M  END
>  <score>  (3) 
-7.586

$$$$
=
     RDKit          3D

 25 26  0  0  0  0  0  0  0  0999 V2000
    2.1630   70.1190   68.7690 S   0  0  0  0  0  0  0  0  0  0  0  0
    2.0400   66.2060   64.9700 Cl  0  0  0  0  0  0  0  0  0  0  0  0
    1.2280   67.4420   65.8480 C   0  0  0  0  0  0  0  0  0  0  0  0
    1.9230   68.1670   66.8170 C   0  0  0  0  0  0  0  0  0  0  0  0
    1.2720   69.1790   67.5310 C   0  0  0  0  0  0  0  0  0  0  0  0
   -0.0830   69.4400   67.2750 C   0  0  0  0  0  0  0  0  0  0  0  0
   -0.7690   68.7090   66.2990 C   0  0  0  0  0  0  0  0  0  0  0  0
   -0.1130   67.7080   65.5840 C   0  0  0  0  0  0  0  0  0  0  0  0
   -2.4320   69.0130   65.9510 Cl  0  0  0  0  0  0  0  0  0  0  0  0
   -0.7460   70.4200   67.9710 O   0  0  0  0  0  0  0  0  0  0  0  0
    3.7990   70.1560   68.0430 C   0  0  0  0  0  0  0  0  0  0  0  0
    3.9700   69.8690   66.6850 C   0  0  0  0  0  0  0  0  0  0  0  0
    5.2480   69.8920   66.1230 C   0  0  0  0  0  0  0  0  0  0  0  0
    5.4470   69.5300   64.4530 Cl  0  0  0  0  0  0  0  0  0  0  0  0
    6.3620   70.2020   66.8990 C   0  0  0  0  0  0  0  0  0  0  0  0
    6.1970   70.4970   68.2510 C   0  0  0  0  0  0  0  0  0  0  0  0
    4.9200   70.4810   68.8240 C   0  0  0  0  0  0  0  0  0  0  0  0
    7.5960   70.8820   69.1860 Cl  0  0  0  0  0  0  0  0  0  0  0  0
    4.7770   70.7770   70.1560 O   0  0  0  0  0  0  0  0  0  0  0  0
    2.9809   67.9432   67.0191 H   0  0  0  0  0  0  0  0  0  0  0  0
   -0.6511   67.1323   64.8165 H   0  0  0  0  0  0  0  0  0  0  0  0
   -1.7018   70.5987   67.7852 H   0  0  0  0  0  0  0  0  0  0  0  0
    3.0982   69.6253   66.0600 H   0  0  0  0  0  0  0  0  0  0  0  0
    7.3652   70.2139   66.4480 H   0  0  0  0  0  0  0  0  0  0  0  0
    3.8783   70.7686   70.5712 H   0  0  0  0  0  0  0  0  0  0  0  0
  3  2  1  0
  4  3  2  0
  5  4  1  0
  5  1  1  0
  6  5  2  0
  7  6  1  0
  8  7  2  0
  8  3  1  0
  9  7  1  0
 10  6  1  0
 11  1  1  0
 12 11  2  0
 13 12  1  0
 14 13  1  0
 15 13  2  0
 16 15  1  0
 17 16  2  0
 17 11  1  0
 18 16  1  0
 19 17  1  0
  4 20  1  0
  8 21  1  0
 10 22  1  0
 12 23  1  0
 15 24  1  0
 19 25  1  0
M  END
>  <score>  (4) 
-7.399

$$$$
=
     RDKit          3D

 25 26  0  0  0  0  0  0  0  0999 V2000
    2.1750   70.1750   68.7690 S   0  0  0  0  0  0  0  0  0  0  0  0
    5.4880   69.4240   64.5000 Cl  0  0  0  0  0  0  0  0  0  0  0  0
    5.2760   69.8620   66.1500 C   0  0  0  0  0  0  0  0  0  0  0  0
    3.9960   69.8500   66.7060 C   0  0  0  0  0  0  0  0  0  0  0  0
    3.8150   70.1980   68.0490 C   0  0  0  0  0  0  0  0  0  0  0  0
    4.9280   70.5740   68.8180 C   0  0  0  0  0  0  0  0  0  0  0  0
    6.2070   70.5810   68.2510 C   0  0  0  0  0  0  0  0  0  0  0  0
    6.3820   70.2240   66.9150 C   0  0  0  0  0  0  0  0  0  0  0  0
    7.5960   71.0270   69.1720 Cl  0  0  0  0  0  0  0  0  0  0  0  0
    4.7740   70.9310   70.1340 O   0  0  0  0  0  0  0  0  0  0  0  0
    1.2920   69.2050   67.5500 C   0  0  0  0  0  0  0  0  0  0  0  0
    1.9510   68.1880   66.8520 C   0  0  0  0  0  0  0  0  0  0  0  0
    1.2610   67.4380   65.8980 C   0  0  0  0  0  0  0  0  0  0  0  0
    2.0840   66.1950   65.0390 Cl  0  0  0  0  0  0  0  0  0  0  0  0
   -0.0830   67.6870   65.6310 C   0  0  0  0  0  0  0  0  0  0  0  0
   -0.7470   68.6930   66.3300 C   0  0  0  0  0  0  0  0  0  0  0  0
   -0.0660   69.4490   67.2920 C   0  0  0  0  0  0  0  0  0  0  0  0
   -2.4140   68.9750   65.9800 Cl  0  0  0  0  0  0  0  0  0  0  0  0
   -0.7380   70.4330   67.9710 O   0  0  0  0  0  0  0  0  0  0  0  0
    3.1303   69.5672   66.0890 H   0  0  0  0  0  0  0  0  0  0  0  0
    7.3870   70.2282   66.4679 H   0  0  0  0  0  0  0  0  0  0  0  0
    5.5628   71.1951   70.6708 H   0  0  0  0  0  0  0  0  0  0  0  0
    3.0119   67.9793   67.0545 H   0  0  0  0  0  0  0  0  0  0  0  0
   -0.6165   67.0938   64.8737 H   0  0  0  0  0  0  0  0  0  0  0  0
   -0.2668   70.9738   68.6533 H   0  0  0  0  0  0  0  0  0  0  0  0
  3  2  1  0
  4  3  2  0
  5  4  1  0
  5  1  1  0
  6  5  2  0
  7  6  1  0
  8  7  2  0
  8  3  1  0
  9  7  1  0
 10  6  1  0
 11  1  1  0
 12 11  2  0
 13 12  1  0
 14 13  1  0
 15 13  2  0
 16 15  1  0
 17 16  2  0
 17 11  1  0
 18 16  1  0
 19 17  1  0
  4 20  1  0
  8 21  1  0
 10 22  1  0
 12 23  1  0
 15 24  1  0
 19 25  1  0
M  END
>  <score>  (5) 
-7.347

$$$$
=
     RDKit          3D

 25 26  0  0  0  0  0  0  0  0999 V2000
    1.1520   68.3380   67.8590 S   0  0  0  0  0  0  0  0  0  0  0  0
    4.9070   69.0860   63.9720 Cl  0  0  0  0  0  0  0  0  0  0  0  0
    4.3730   69.3540   65.5850 C   0  0  0  0  0  0  0  0  0  0  0  0
    3.1530   68.8210   66.0030 C   0  0  0  0  0  0  0  0  0  0  0  0
    2.7130   69.0290   67.3150 C   0  0  0  0  0  0  0  0  0  0  0  0
    3.5010   69.7900   68.1920 C   0  0  0  0  0  0  0  0  0  0  0  0
    4.7240   70.3170   67.7640 C   0  0  0  0  0  0  0  0  0  0  0  0
    5.1620   70.0990   66.4580 C   0  0  0  0  0  0  0  0  0  0  0  0
    5.7220   71.2470   68.8200 Cl  0  0  0  0  0  0  0  0  0  0  0  0
    3.0860   70.0170   69.4800 O   0  0  0  0  0  0  0  0  0  0  0  0
    0.1580   68.5670   66.3870 C   0  0  0  0  0  0  0  0  0  0  0  0
    0.7690   68.6230   65.1300 C   0  0  0  0  0  0  0  0  0  0  0  0
   -0.0080   68.8080   63.9850 C   0  0  0  0  0  0  0  0  0  0  0  0
    0.7560   68.8830   62.4450 Cl  0  0  0  0  0  0  0  0  0  0  0  0
   -1.3910   68.9350   64.0750 C   0  0  0  0  0  0  0  0  0  0  0  0
   -2.0070   68.8710   65.3240 C   0  0  0  0  0  0  0  0  0  0  0  0
   -1.2380   68.6820   66.4790 C   0  0  0  0  0  0  0  0  0  0  0  0
   -3.7240   69.0270   65.4040 Cl  0  0  0  0  0  0  0  0  0  0  0  0
   -1.8620   68.6190   67.6980 O   0  0  0  0  0  0  0  0  0  0  0  0
    2.5378   68.2379   65.3019 H   0  0  0  0  0  0  0  0  0  0  0  0
    6.1236   70.5125   66.1199 H   0  0  0  0  0  0  0  0  0  0  0  0
    3.6470   70.5548   70.0933 H   0  0  0  0  0  0  0  0  0  0  0  0
    1.8609   68.5213   65.0437 H   0  0  0  0  0  0  0  0  0  0  0  0
   -1.9938   69.0848   63.1671 H   0  0  0  0  0  0  0  0  0  0  0  0
   -1.3282   68.4857   68.5210 H   0  0  0  0  0  0  0  0  0  0  0  0
  3  2  1  0
  4  3  2  0
  5  4  1  0
  5  1  1  0
  6  5  2  0
  7  6  1  0
  8  7  2  0
  8  3  1  0
  9  7  1  0
 10  6  1  0
 11  1  1  0
 12 11  2  0
 13 12  1  0
 14 13  1  0
 15 13  2  0
 16 15  1  0
 17 16  2  0
 17 11  1  0
 18 16  1  0
 19 17  1  0
  4 20  1  0
  8 21  1  0
 10 22  1  0
 12 23  1  0
 15 24  1  0
 19 25  1  0
M  END
>  <score>  (6) 
-7.234

$$$$
=
     RDKit          3D

 25 26  0  0  0  0  0  0  0  0999 V2000
    0.3010   68.5240   64.4700 S   0  0  0  0  0  0  0  0  0  0  0  0
    4.8390   65.5190   64.0890 Cl  0  0  0  0  0  0  0  0  0  0  0  0
    3.7930   66.7110   63.4230 C   0  0  0  0  0  0  0  0  0  0  0  0
    2.6350   67.0750   64.1130 C   0  0  0  0  0  0  0  0  0  0  0  0
    1.7820   68.0480   63.5820 C   0  0  0  0  0  0  0  0  0  0  0  0
    2.0940   68.6360   62.3470 C   0  0  0  0  0  0  0  0  0  0  0  0
    3.2580   68.2670   61.6640 C   0  0  0  0  0  0  0  0  0  0  0  0
    4.1100   67.3030   62.2020 C   0  0  0  0  0  0  0  0  0  0  0  0
    3.6770   68.9790   60.1490 Cl  0  0  0  0  0  0  0  0  0  0  0  0
    1.2670   69.5850   61.8000 O   0  0  0  0  0  0  0  0  0  0  0  0
    0.8850   68.4360   66.1600 C   0  0  0  0  0  0  0  0  0  0  0  0
    1.9430   69.2490   66.5800 C   0  0  0  0  0  0  0  0  0  0  0  0
    2.4010   69.1740   67.8960 C   0  0  0  0  0  0  0  0  0  0  0  0
    3.7080   70.1720   68.3990 Cl  0  0  0  0  0  0  0  0  0  0  0  0
    1.8130   68.2980   68.8060 C   0  0  0  0  0  0  0  0  0  0  0  0
    0.7520   67.4920   68.3960 C   0  0  0  0  0  0  0  0  0  0  0  0
    0.2830   67.5620   67.0790 C   0  0  0  0  0  0  0  0  0  0  0  0
    0.0410   66.4200   69.5480 Cl  0  0  0  0  0  0  0  0  0  0  0  0
   -0.7640   66.7630   66.6960 O   0  0  0  0  0  0  0  0  0  0  0  0
    2.3937   66.5968   65.0738 H   0  0  0  0  0  0  0  0  0  0  0  0
    5.0257   67.0120   61.6664 H   0  0  0  0  0  0  0  0  0  0  0  0
    1.4934   69.9957   60.9281 H   0  0  0  0  0  0  0  0  0  0  0  0
    2.4140   69.9476   65.8728 H   0  0  0  0  0  0  0  0  0  0  0  0
    2.1832   68.2428   69.8404 H   0  0  0  0  0  0  0  0  0  0  0  0
   -1.1040   66.8041   65.7671 H   0  0  0  0  0  0  0  0  0  0  0  0
  3  2  1  0
  4  3  2  0
  5  4  1  0
  5  1  1  0
  6  5  2  0
  7  6  1  0
  8  7  2  0
  8  3  1  0
  9  7  1  0
 10  6  1  0
 11  1  1  0
 12 11  2  0
 13 12  1  0
 14 13  1  0
 15 13  2  0
 16 15  1  0
 17 16  2  0
 17 11  1  0
 18 16  1  0
 19 17  1  0
  4 20  1  0
  8 21  1  0
 10 22  1  0
 12 23  1  0
 15 24  1  0
 19 25  1  0
M  END
>  <score>  (7) 
-6.997

$$$$
=
     RDKit          3D

 25 26  0  0  0  0  0  0  0  0999 V2000
    1.8690   70.2760   68.3970 S   0  0  0  0  0  0  0  0  0  0  0  0
    3.4120   67.9140   63.7270 Cl  0  0  0  0  0  0  0  0  0  0  0  0
    3.8290   68.7520   65.1710 C   0  0  0  0  0  0  0  0  0  0  0  0
    2.8240   69.1260   66.0640 C   0  0  0  0  0  0  0  0  0  0  0  0
    3.1550   69.8020   67.2430 C   0  0  0  0  0  0  0  0  0  0  0  0
    4.4980   70.1110   67.5050 C   0  0  0  0  0  0  0  0  0  0  0  0
    5.4980   69.7290   66.6040 C   0  0  0  0  0  0  0  0  0  0  0  0
    5.1640   69.0480   65.4350 C   0  0  0  0  0  0  0  0  0  0  0  0
    7.1600   70.0840   66.9020 Cl  0  0  0  0  0  0  0  0  0  0  0  0
    4.8460   70.7840   68.6490 O   0  0  0  0  0  0  0  0  0  0  0  0
    0.6610   68.9890   68.0940 C   0  0  0  0  0  0  0  0  0  0  0  0
   -0.3480   69.1830   67.1450 C   0  0  0  0  0  0  0  0  0  0  0  0
   -1.2910   68.1810   66.9160 C   0  0  0  0  0  0  0  0  0  0  0  0
   -2.5330   68.4340   65.7520 Cl  0  0  0  0  0  0  0  0  0  0  0  0
   -1.2410   66.9800   67.6190 C   0  0  0  0  0  0  0  0  0  0  0  0
   -0.2320   66.7770   68.5600 C   0  0  0  0  0  0  0  0  0  0  0  0
    0.7220   67.7740   68.7950 C   0  0  0  0  0  0  0  0  0  0  0  0
   -0.1930   65.2770   69.4130 Cl  0  0  0  0  0  0  0  0  0  0  0  0
    1.7080   67.5540   69.7220 O   0  0  0  0  0  0  0  0  0  0  0  0
    1.7731   68.8896   65.8411 H   0  0  0  0  0  0  0  0  0  0  0  0
    5.9490   68.7464   64.7259 H   0  0  0  0  0  0  0  0  0  0  0  0
    5.7958   70.9988   68.8274 H   0  0  0  0  0  0  0  0  0  0  0  0
   -0.3979   70.1252   66.5796 H   0  0  0  0  0  0  0  0  0  0  0  0
   -1.9915   66.1975   67.4335 H   0  0  0  0  0  0  0  0  0  0  0  0
    2.3880   68.2520   69.8965 H   0  0  0  0  0  0  0  0  0  0  0  0
  3  2  1  0
  4  3  2  0
  5  4  1  0
  5  1  1  0
  6  5  2  0
  7  6  1  0
  8  7  2  0
  8  3  1  0
  9  7  1  0
 10  6  1  0
 11  1  1  0
 12 11  2  0
 13 12  1  0
 14 13  1  0
 15 13  2  0
 16 15  1  0
 17 16  2  0
 17 11  1  0
 18 16  1  0
 19 17  1  0
  4 20  1  0
  8 21  1  0
 10 22  1  0
 12 23  1  0
 15 24  1  0
 19 25  1  0
M  END
>  <score>  (8) 
-6.867

$$$$
=
     RDKit          3D

 25 26  0  0  0  0  0  0  0  0999 V2000
    1.7560   67.9440   66.8110 S   0  0  0  0  0  0  0  0  0  0  0  0
    0.2190   69.3550   61.7700 Cl  0  0  0  0  0  0  0  0  0  0  0  0
   -0.1980   69.0170   63.4040 C   0  0  0  0  0  0  0  0  0  0  0  0
    0.8030   68.6610   64.3100 C   0  0  0  0  0  0  0  0  0  0  0  0
    0.4740   68.3910   65.6430 C   0  0  0  0  0  0  0  0  0  0  0  0
   -0.8680   68.4650   66.0490 C   0  0  0  0  0  0  0  0  0  0  0  0
   -1.8620   68.8260   65.1330 C   0  0  0  0  0  0  0  0  0  0  0  0
   -1.5280   69.1030   63.8090 C   0  0  0  0  0  0  0  0  0  0  0  0
   -3.5190   68.9370   65.6030 Cl  0  0  0  0  0  0  0  0  0  0  0  0
   -1.2170   68.1930   67.3480 O   0  0  0  0  0  0  0  0  0  0  0  0
    3.2130   68.5070   65.9350 C   0  0  0  0  0  0  0  0  0  0  0  0
    3.4860   68.0310   64.6490 C   0  0  0  0  0  0  0  0  0  0  0  0
    4.6260   68.4670   63.9720 C   0  0  0  0  0  0  0  0  0  0  0  0
    4.9560   67.8680   62.3940 Cl  0  0  0  0  0  0  0  0  0  0  0  0
    5.4990   69.3790   64.5600 C   0  0  0  0  0  0  0  0  0  0  0  0
    5.2270   69.8650   65.8370 C   0  0  0  0  0  0  0  0  0  0  0  0
    4.0850   69.4370   66.5240 C   0  0  0  0  0  0  0  0  0  0  0  0
    6.3250   70.9980   66.5380 Cl  0  0  0  0  0  0  0  0  0  0  0  0
    3.8330   69.9280   67.7800 O   0  0  0  0  0  0  0  0  0  0  0  0
    1.8489   68.5929   63.9763 H   0  0  0  0  0  0  0  0  0  0  0  0
   -2.3091   69.3876   63.0886 H   0  0  0  0  0  0  0  0  0  0  0  0
   -2.1652   68.2471   67.6275 H   0  0  0  0  0  0  0  0  0  0  0  0
    2.8028   67.3134   64.1712 H   0  0  0  0  0  0  0  0  0  0  0  0
    6.3971   69.7133   64.0199 H   0  0  0  0  0  0  0  0  0  0  0  0
    3.0282   69.6321   68.2749 H   0  0  0  0  0  0  0  0  0  0  0  0
  3  2  1  0
  4  3  2  0
  5  4  1  0
  5  1  1  0
  6  5  2  0
  7  6  1  0
  8  7  2  0
  8  3  1  0
  9  7  1  0
 10  6  1  0
 11  1  1  0
 12 11  2  0
 13 12  1  0
 14 13  1  0
 15 13  2  0
 16 15  1  0
 17 16  2  0
 17 11  1  0
 18 16  1  0
 19 17  1  0
  4 20  1  0
  8 21  1  0
 10 22  1  0
 12 23  1  0
 15 24  1  0
 19 25  1  0
M  END
>  <score>  (9) 
-6.706

$$$$
