=
     RDKit          3D

 56 59  0  0  0  0  0  0  0  0999 V2000
   -0.2810   67.3790   67.9950 C   0  0  0  0  0  0  0  0  0  0  0  0
   -1.1600   68.1180   67.5470 O   0  0  0  0  0  0  0  0  0  0  0  0
    4.6940   69.4370   64.7890 C   0  0  0  0  0  0  0  0  0  0  0  0
    3.5580   68.6430   64.6020 C   0  0  0  0  0  0  0  0  0  0  0  0
    2.7080   68.4260   65.6750 C   0  0  0  0  0  0  0  0  0  0  0  0
    1.2290   67.4560   65.6680 S   0  0  0  0  0  0  0  0  0  0  0  0
    1.1550   67.4410   67.4930 C   0  0  1  0  0  0  0  0  0  0  0  0
    1.9050   68.7010   67.9580 C   0  0  0  0  0  0  0  0  0  0  0  0
    2.9620   68.9820   66.9270 C   0  0  0  0  0  0  0  0  0  0  0  0
    4.0800   69.7860   67.1260 C   0  0  0  0  0  0  0  0  0  0  0  0
    4.9570   70.0120   66.0580 C   0  0  0  0  0  0  0  0  0  0  0  0
    5.7370   68.7940   62.7340 C   0  0  0  0  0  0  0  0  0  0  0  0
    5.6120   69.7170   63.8050 O   0  0  0  0  0  0  0  0  0  0  0  0
    6.0940   70.7800   66.1410 O   0  0  0  0  0  0  0  0  0  0  0  0
    6.7390   70.8750   67.4030 C   0  0  0  0  0  0  0  0  0  0  0  0
   -0.5840   66.4210   69.1400 C   0  0  0  0  0  0  0  0  0  0  0  0
    0.5350   66.4140   70.1820 C   0  0  0  0  0  0  0  0  0  0  0  0
    0.9270   65.0130   70.5850 C   0  0  0  0  0  0  0  0  0  0  0  0
    0.0430   64.1960   71.2900 C   0  0  0  0  0  0  0  0  0  0  0  0
    0.4280   62.9090   71.6480 C   0  0  0  0  0  0  0  0  0  0  0  0
    1.6550   62.4410   71.3260 N   0  0  0  0  0  4  0  0  0  0  0  0
    2.5320   63.2160   70.6460 C   0  0  0  0  0  0  0  0  0  0  0  0
    2.1880   64.5090   70.2670 C   0  0  0  0  0  0  0  0  0  0  0  0
    2.0460   61.0600   71.7090 C   0  0  0  0  0  0  0  0  0  0  0  0
    3.4190   60.6750   71.1690 C   0  0  0  0  0  0  0  0  0  0  0  0
    3.3990   59.8830   69.8350 C   0  0  0  0  0  0  0  0  0  0  0  0
    3.5080   58.5880   70.6620 C   0  0  0  0  0  0  0  0  0  0  0  0
    4.1140   59.4370   71.7970 C   0  0  0  0  0  0  0  0  0  0  0  0
    3.3426   68.1980   63.6194 H   0  0  0  0  0  0  0  0  0  0  0  0
    1.6296   66.5418   67.9127 H   0  0  0  0  0  0  0  0  0  0  0  0
    1.2101   69.5507   68.0293 H   0  0  0  0  0  0  0  0  0  0  0  0
    2.3526   68.5500   68.9514 H   0  0  0  0  0  0  0  0  0  0  0  0
    4.2725   70.2384   68.1100 H   0  0  0  0  0  0  0  0  0  0  0  0
    5.8743   67.7801   63.1379 H   0  0  0  0  0  0  0  0  0  0  0  0
    4.8268   68.8228   62.1170 H   0  0  0  0  0  0  0  0  0  0  0  0
    6.6068   69.0638   62.1170 H   0  0  0  0  0  0  0  0  0  0  0  0
    5.9939   70.7653   68.2048 H   0  0  0  0  0  0  0  0  0  0  0  0
    7.4922   70.0781   67.4908 H   0  0  0  0  0  0  0  0  0  0  0  0
    7.2304   71.8552   67.4908 H   0  0  0  0  0  0  0  0  0  0  0  0
   -1.5213   66.7306   69.6254 H   0  0  0  0  0  0  0  0  0  0  0  0
   -0.6721   65.4064   68.7243 H   0  0  0  0  0  0  0  0  0  0  0  0
    1.4154   66.9212   69.7605 H   0  0  0  0  0  0  0  0  0  0  0  0
    0.1662   66.9337   71.0786 H   0  0  0  0  0  0  0  0  0  0  0  0
   -0.9555   64.5689   71.5618 H   0  0  0  0  0  0  0  0  0  0  0  0
   -0.2729   62.2647   72.1990 H   0  0  0  0  0  0  0  0  0  0  0  0
    3.5258   62.8194   70.3909 H   0  0  0  0  0  0  0  0  0  0  0  0
    2.9086   65.1327   69.7178 H   0  0  0  0  0  0  0  0  0  0  0  0
    2.0654   60.9897   72.8066 H   0  0  0  0  0  0  0  0  0  0  0  0
    1.3084   60.3693   71.2744 H   0  0  0  0  0  0  0  0  0  0  0  0
    3.8613   61.6776   71.2651 H   0  0  0  0  0  0  0  0  0  0  0  0
    2.4662   59.9804   69.2602 H   0  0  0  0  0  0  0  0  0  0  0  0
    4.1079   60.1071   69.0243 H   0  0  0  0  0  0  0  0  0  0  0  0
    2.5439   58.1181   70.9063 H   0  0  0  0  0  0  0  0  0  0  0  0
    4.0205   57.6962   70.2722 H   0  0  0  0  0  0  0  0  0  0  0  0
    3.7573   59.1748   72.8040 H   0  0  0  0  0  0  0  0  0  0  0  0
    5.1940   59.4293   72.0059 H   0  0  0  0  0  0  0  0  0  0  0  0
  2  1  2  0
  4  3  2  0
  5  4  1  0
  6  5  1  0
  7  6  1  0
  7  1  1  0
  8  7  1  0
  9  8  1  0
  9  5  2  0
 10  9  1  0
 11  3  1  0
 11 10  2  0
 13  3  1  0
 13 12  1  0
 14 11  1  0
 15 14  1  0
 16  1  1  0
 17 16  1  0
 18 17  1  0
 19 18  2  0
 20 19  1  0
 21 20  2  0
 22 21  1  0
 23 22  2  0
 23 18  1  0
 24 21  1  0
 25 24  1  0
 26 25  1  0
 27 26  1  0
 28 27  1  0
 28 25  1  0
  4 29  1  0
  7 30  1  1
  8 31  1  0
  8 32  1  0
 10 33  1  0
 12 34  1  0
 12 35  1  0
 12 36  1  0
 15 37  1  0
 15 38  1  0
 15 39  1  0
 16 40  1  0
 16 41  1  0
 17 42  1  0
 17 43  1  0
 19 44  1  0
 20 45  1  0
 22 46  1  0
 23 47  1  0
 24 48  1  0
 24 49  1  0
 25 50  1  0
 26 51  1  0
 26 52  1  0
 27 53  1  0
 27 54  1  0
 28 55  1  0
 28 56  1  0
M  CHG  1  21   1
M  END
>  <score>  (1) 
-9.888

$$$$
=
     RDKit          3D

 56 59  0  0  0  0  0  0  0  0999 V2000
   -0.7950   67.8480   67.4200 C   0  0  0  0  0  0  0  0  0  0  0  0
   -1.9800   68.1870   67.4390 O   0  0  0  0  0  0  0  0  0  0  0  0
    4.9890   69.9290   66.2000 C   0  0  0  0  0  0  0  0  0  0  0  0
    4.0770   69.8700   67.2600 C   0  0  0  0  0  0  0  0  0  0  0  0
    2.8260   69.3160   67.0370 C   0  0  0  0  0  0  0  0  0  0  0  0
    1.5230   69.1450   68.2220 S   0  0  0  0  0  0  0  0  0  0  0  0
    0.3000   68.7790   66.9160 C   0  0  1  0  0  0  0  0  0  0  0  0
    1.0980   68.1930   65.7400 C   0  0  0  0  0  0  0  0  0  0  0  0
    2.4640   68.8180   65.7870 C   0  0  0  0  0  0  0  0  0  0  0  0
    3.3640   68.8570   64.7270 C   0  0  0  0  0  0  0  0  0  0  0  0
    4.6310   69.4200   64.9260 C   0  0  0  0  0  0  0  0  0  0  0  0
    6.8160   70.5980   67.5930 C   0  0  0  0  0  0  0  0  0  0  0  0
    6.2520   70.4610   66.2980 O   0  0  0  0  0  0  0  0  0  0  0  0
    5.5940   69.5200   63.9520 O   0  0  0  0  0  0  0  0  0  0  0  0
    5.2190   69.2210   62.6150 C   0  0  0  0  0  0  0  0  0  0  0  0
   -0.3660   66.4990   67.9820 C   0  0  0  0  0  0  0  0  0  0  0  0
   -0.3720   66.4980   69.5110 C   0  0  0  0  0  0  0  0  0  0  0  0
    0.4660   65.3790   70.0810 C   0  0  0  0  0  0  0  0  0  0  0  0
    1.8510   65.5000   70.1830 C   0  0  0  0  0  0  0  0  0  0  0  0
    2.5990   64.4550   70.7140 C   0  0  0  0  0  0  0  0  0  0  0  0
    1.9980   63.3160   71.1270 N   0  0  0  0  0  4  0  0  0  0  0  0
    0.6560   63.1730   71.0360 C   0  0  0  0  0  0  0  0  0  0  0  0
   -0.1310   64.1930   70.5110 C   0  0  0  0  0  0  0  0  0  0  0  0
    2.8120   62.2140   71.6990 C   0  0  0  0  0  0  0  0  0  0  0  0
    3.8810   61.7180   70.7300 C   0  0  0  0  0  0  0  0  0  0  0  0
    3.3540   60.8180   69.5810 C   0  0  0  0  0  0  0  0  0  0  0  0
    3.7460   59.5940   70.4310 C   0  0  0  0  0  0  0  0  0  0  0  0
    4.7420   60.5060   71.1740 C   0  0  0  0  0  0  0  0  0  0  0  0
    4.3483   70.2567   68.2534 H   0  0  0  0  0  0  0  0  0  0  0  0
   -0.2368   69.6839   66.5949 H   0  0  0  0  0  0  0  0  0  0  0  0
    1.1777   67.1008   65.8435 H   0  0  0  0  0  0  0  0  0  0  0  0
    0.6006   68.4038   64.7818 H   0  0  0  0  0  0  0  0  0  0  0  0
    3.0839   68.4504   63.7440 H   0  0  0  0  0  0  0  0  0  0  0  0
    6.0421   70.4100   68.3518 H   0  0  0  0  0  0  0  0  0  0  0  0
    7.6335   69.8723   67.7155 H   0  0  0  0  0  0  0  0  0  0  0  0
    7.2095   71.6179   67.7155 H   0  0  0  0  0  0  0  0  0  0  0  0
    4.3589   68.5352   62.6200 H   0  0  0  0  0  0  0  0  0  0  0  0
    4.9439   70.1503   62.0948 H   0  0  0  0  0  0  0  0  0  0  0  0
    6.0638   68.7459   62.0948 H   0  0  0  0  0  0  0  0  0  0  0  0
   -1.0601   65.7253   67.6219 H   0  0  0  0  0  0  0  0  0  0  0  0
    0.6602   66.2955   67.6421 H   0  0  0  0  0  0  0  0  0  0  0  0
    0.0284   67.4583   69.8680 H   0  0  0  0  0  0  0  0  0  0  0  0
   -1.4092   66.3491   69.8458 H   0  0  0  0  0  0  0  0  0  0  0  0
    2.3507   66.4196   69.8444 H   0  0  0  0  0  0  0  0  0  0  0  0
    3.6911   64.5558   70.7990 H   0  0  0  0  0  0  0  0  0  0  0  0
    0.1826   62.2417   71.3803 H   0  0  0  0  0  0  0  0  0  0  0  0
   -1.2209   64.0651   70.4350 H   0  0  0  0  0  0  0  0  0  0  0  0
    3.3046   62.5764   72.6133 H   0  0  0  0  0  0  0  0  0  0  0  0
    2.1358   61.3729   71.9121 H   0  0  0  0  0  0  0  0  0  0  0  0
    4.3419   62.7019   70.5583 H   0  0  0  0  0  0  0  0  0  0  0  0
    2.2756   60.9117   69.3855 H   0  0  0  0  0  0  0  0  0  0  0  0
    3.7122   60.9377   68.5479 H   0  0  0  0  0  0  0  0  0  0  0  0
    2.9359   59.1937   71.0583 H   0  0  0  0  0  0  0  0  0  0  0  0
    4.0648   58.6485   69.9679 H   0  0  0  0  0  0  0  0  0  0  0  0
    4.7818   60.3481   72.2619 H   0  0  0  0  0  0  0  0  0  0  0  0
    5.8219   60.4634   70.9693 H   0  0  0  0  0  0  0  0  0  0  0  0
  2  1  2  0
  4  3  2  0
  5  4  1  0
  6  5  1  0
  7  6  1  0
  7  1  1  0
  8  7  1  0
  9  8  1  0
  9  5  2  0
 10  9  1  0
 11  3  1  0
 11 10  2  0
 13  3  1  0
 13 12  1  0
 14 11  1  0
 15 14  1  0
 16  1  1  0
 17 16  1  0
 18 17  1  0
 19 18  2  0
 20 19  1  0
 21 20  2  0
 22 21  1  0
 23 22  2  0
 23 18  1  0
 24 21  1  0
 25 24  1  0
 26 25  1  0
 27 26  1  0
 28 27  1  0
 28 25  1  0
  4 29  1  0
  7 30  1  6
  8 31  1  0
  8 32  1  0
 10 33  1  0
 12 34  1  0
 12 35  1  0
 12 36  1  0
 15 37  1  0
 15 38  1  0
 15 39  1  0
 16 40  1  0
 16 41  1  0
 17 42  1  0
 17 43  1  0
 19 44  1  0
 20 45  1  0
 22 46  1  0
 23 47  1  0
 24 48  1  0
 24 49  1  0
 25 50  1  0
 26 51  1  0
 26 52  1  0
 27 53  1  0
 27 54  1  0
 28 55  1  0
 28 56  1  0
M  CHG  1  21   1
M  END
>  <score>  (2) 
-9.179

$$$$
=
     RDKit          3D

 56 59  0  0  0  0  0  0  0  0999 V2000
    0.8050   67.5260   68.2540 C   0  0  0  0  0  0  0  0  0  0  0  0
    1.5210   68.3370   68.8460 O   0  0  0  0  0  0  0  0  0  0  0  0
    1.2010   69.1590   62.2170 C   0  0  0  0  0  0  0  0  0  0  0  0
    0.2510   69.0810   63.2420 C   0  0  0  0  0  0  0  0  0  0  0  0
    0.6400   68.5960   64.4810 C   0  0  0  0  0  0  0  0  0  0  0  0
   -0.3870   68.4050   65.9080 S   0  0  0  0  0  0  0  0  0  0  0  0
    0.8580   67.3610   66.7420 C   0  0  1  0  0  0  0  0  0  0  0  0
    2.2160   67.7560   66.1370 C   0  0  0  0  0  0  0  0  0  0  0  0
    1.9510   68.1900   64.7230 C   0  0  0  0  0  0  0  0  0  0  0  0
    2.9110   68.2750   63.7190 C   0  0  0  0  0  0  0  0  0  0  0  0
    2.5390   68.7540   62.4570 C   0  0  0  0  0  0  0  0  0  0  0  0
   -0.3660   70.1260   60.6890 C   0  0  0  0  0  0  0  0  0  0  0  0
    0.9330   69.6150   60.9490 O   0  0  0  0  0  0  0  0  0  0  0  0
    3.3970   68.8720   61.3910 O   0  0  0  0  0  0  0  0  0  0  0  0
    4.7840   69.0040   61.6680 C   0  0  0  0  0  0  0  0  0  0  0  0
   -0.1130   66.5920   69.0320 C   0  0  0  0  0  0  0  0  0  0  0  0
    0.3490   66.4250   70.4800 C   0  0  0  0  0  0  0  0  0  0  0  0
    0.8140   65.0170   70.7690 C   0  0  0  0  0  0  0  0  0  0  0  0
   -0.0120   64.1120   71.4340 C   0  0  0  0  0  0  0  0  0  0  0  0
    0.4390   62.8210   71.6860 C   0  0  0  0  0  0  0  0  0  0  0  0
    1.6760   62.4350   71.2990 N   0  0  0  0  0  4  0  0  0  0  0  0
    2.4980   63.2960   70.6550 C   0  0  0  0  0  0  0  0  0  0  0  0
    2.0870   64.5970   70.3820 C   0  0  0  0  0  0  0  0  0  0  0  0
    2.1390   61.0490   71.5690 C   0  0  0  0  0  0  0  0  0  0  0  0
    3.4540   60.7290   70.8660 C   0  0  0  0  0  0  0  0  0  0  0  0
    3.3250   59.8070   69.6250 C   0  0  0  0  0  0  0  0  0  0  0  0
    3.6760   58.6170   70.5380 C   0  0  0  0  0  0  0  0  0  0  0  0
    4.3480   59.6250   71.4910 C   0  0  0  0  0  0  0  0  0  0  0  0
   -0.7873   69.3994   63.0672 H   0  0  0  0  0  0  0  0  0  0  0  0
    0.6679   66.2901   66.5779 H   0  0  0  0  0  0  0  0  0  0  0  0
    2.6598   68.5833   66.7103 H   0  0  0  0  0  0  0  0  0  0  0  0
    2.9214   66.9124   66.1656 H   0  0  0  0  0  0  0  0  0  0  0  0
    3.9495   67.9696   63.9145 H   0  0  0  0  0  0  0  0  0  0  0  0
   -0.8782   70.3275   61.6414 H   0  0  0  0  0  0  0  0  0  0  0  0
   -0.2843   71.0590   60.1121 H   0  0  0  0  0  0  0  0  0  0  0  0
   -0.9419   69.3874   60.1121 H   0  0  0  0  0  0  0  0  0  0  0  0
    4.9407   69.0189   62.7567 H   0  0  0  0  0  0  0  0  0  0  0  0
    5.3278   68.1535   61.2309 H   0  0  0  0  0  0  0  0  0  0  0  0
    5.1576   69.9418   61.2309 H   0  0  0  0  0  0  0  0  0  0  0  0
   -1.1314   67.0077   69.0280 H   0  0  0  0  0  0  0  0  0  0  0  0
   -0.0894   65.6047   68.5476 H   0  0  0  0  0  0  0  0  0  0  0  0
    1.1810   67.1192   70.6692 H   0  0  0  0  0  0  0  0  0  0  0  0
   -0.5074   66.6404   71.1359 H   0  0  0  0  0  0  0  0  0  0  0  0
   -1.0175   64.4183   71.7584 H   0  0  0  0  0  0  0  0  0  0  0  0
   -0.2168   62.1067   72.2052 H   0  0  0  0  0  0  0  0  0  0  0  0
    3.4998   62.9643   70.3447 H   0  0  0  0  0  0  0  0  0  0  0  0
    2.7634   65.2920   69.8629 H   0  0  0  0  0  0  0  0  0  0  0  0
    2.2794   60.9282   72.6533 H   0  0  0  0  0  0  0  0  0  0  0  0
    1.3749   60.3585   71.1826 H   0  0  0  0  0  0  0  0  0  0  0  0
    3.8048   61.7698   70.8055 H   0  0  0  0  0  0  0  0  0  0  0  0
    2.3158   59.7662   69.1894 H   0  0  0  0  0  0  0  0  0  0  0  0
    3.8873   60.0066   68.7009 H   0  0  0  0  0  0  0  0  0  0  0  0
    2.8066   58.0943   70.9634 H   0  0  0  0  0  0  0  0  0  0  0  0
    4.2146   57.7370   70.1566 H   0  0  0  0  0  0  0  0  0  0  0  0
    4.1628   59.4374   72.5589 H   0  0  0  0  0  0  0  0  0  0  0  0
    5.4420   59.7299   71.5375 H   0  0  0  0  0  0  0  0  0  0  0  0
  2  1  2  0
  4  3  2  0
  5  4  1  0
  6  5  1  0
  7  6  1  0
  7  1  1  0
  8  7  1  0
  9  8  1  0
  9  5  2  0
 10  9  1  0
 11  3  1  0
 11 10  2  0
 13  3  1  0
 13 12  1  0
 14 11  1  0
 15 14  1  0
 16  1  1  0
 17 16  1  0
 18 17  1  0
 19 18  2  0
 20 19  1  0
 21 20  2  0
 22 21  1  0
 23 22  2  0
 23 18  1  0
 24 21  1  0
 25 24  1  0
 26 25  1  0
 27 26  1  0
 28 27  1  0
 28 25  1  0
  4 29  1  0
  7 30  1  1
  8 31  1  0
  8 32  1  0
 10 33  1  0
 12 34  1  0
 12 35  1  0
 12 36  1  0
 15 37  1  0
 15 38  1  0
 15 39  1  0
 16 40  1  0
 16 41  1  0
 17 42  1  0
 17 43  1  0
 19 44  1  0
 20 45  1  0
 22 46  1  0
 23 47  1  0
 24 48  1  0
 24 49  1  0
 25 50  1  0
 26 51  1  0
 26 52  1  0
 27 53  1  0
 27 54  1  0
 28 55  1  0
 28 56  1  0
M  CHG  1  21   1
M  END
>  <score>  (3) 
-8.75

$$$$
=
     RDKit          3D

 56 59  0  0  0  0  0  0  0  0999 V2000
    0.4320   65.6300   70.8050 C   0  0  0  0  0  0  0  0  0  0  0  0
   -0.3400   66.1290   71.6270 O   0  0  0  0  0  0  0  0  0  0  0  0
    2.5730   59.8530   71.9530 C   0  0  0  0  0  0  0  0  0  0  0  0
    2.9420   61.0110   71.2570 C   0  0  0  0  0  0  0  0  0  0  0  0
    2.0810   62.0960   71.2590 C   0  0  0  0  0  0  0  0  0  0  0  0
    2.3390   63.6460   70.4470 S   0  0  0  0  0  0  0  0  0  0  0  0
    0.5890   64.1220   70.6630 C   0  0  1  0  0  0  0  0  0  0  0  0
    0.0870   63.3430   71.8900 C   0  0  0  0  0  0  0  0  0  0  0  0
    0.8650   62.0580   71.9370 C   0  0  0  0  0  0  0  0  0  0  0  0
    0.4890   60.9200   72.6450 C   0  0  0  0  0  0  0  0  0  0  0  0
    1.3400   59.8080   72.6500 C   0  0  0  0  0  0  0  0  0  0  0  0
    3.3150   57.8350   70.9030 C   0  0  0  0  0  0  0  0  0  0  0  0
    3.3390   58.7140   72.0180 O   0  0  0  0  0  0  0  0  0  0  0  0
    1.0690   58.6310   73.3060 O   0  0  0  0  0  0  0  0  0  0  0  0
    1.4530   58.5280   74.6700 C   0  0  0  0  0  0  0  0  0  0  0  0
    1.2060   66.5120   69.8340 C   0  0  0  0  0  0  0  0  0  0  0  0
    0.2750   67.2210   68.8520 C   0  0  0  0  0  0  0  0  0  0  0  0
    1.0020   67.6850   67.6120 C   0  0  0  0  0  0  0  0  0  0  0  0
    0.7150   67.1340   66.3640 C   0  0  0  0  0  0  0  0  0  0  0  0
    1.3990   67.5800   65.2380 C   0  0  0  0  0  0  0  0  0  0  0  0
    2.3460   68.5400   65.3410 N   0  0  0  0  0  4  0  0  0  0  0  0
    2.6450   69.0870   66.5420 C   0  0  0  0  0  0  0  0  0  0  0  0
    1.9860   68.6710   67.6940 C   0  0  0  0  0  0  0  0  0  0  0  0
    3.0600   69.0100   64.1270 C   0  0  0  0  0  0  0  0  0  0  0  0
    4.4650   68.4250   64.0170 C   0  0  0  0  0  0  0  0  0  0  0  0
    5.5920   69.4670   63.7920 C   0  0  0  0  0  0  0  0  0  0  0  0
    5.4930   69.1720   62.2840 C   0  0  0  0  0  0  0  0  0  0  0  0
    4.8780   67.8080   62.6530 C   0  0  0  0  0  0  0  0  0  0  0  0
    3.8996   61.0581   70.7178 H   0  0  0  0  0  0  0  0  0  0  0  0
   -0.0150   63.8671   69.7797 H   0  0  0  0  0  0  0  0  0  0  0  0
    0.2626   63.9257   72.8063 H   0  0  0  0  0  0  0  0  0  0  0  0
   -0.9932   63.1479   71.8186 H   0  0  0  0  0  0  0  0  0  0  0  0
   -0.4642   60.8946   73.1934 H   0  0  0  0  0  0  0  0  0  0  0  0
    3.2866   56.7940   71.2573 H   0  0  0  0  0  0  0  0  0  0  0  0
    2.4221   58.0396   70.2940 H   0  0  0  0  0  0  0  0  0  0  0  0
    4.2177   57.9905   70.2940 H   0  0  0  0  0  0  0  0  0  0  0  0
    0.5904   58.7594   75.3122 H   0  0  0  0  0  0  0  0  0  0  0  0
    1.8003   57.5050   74.8769 H   0  0  0  0  0  0  0  0  0  0  0  0
    2.2656   59.2399   74.8769 H   0  0  0  0  0  0  0  0  0  0  0  0
    1.7640   67.2681   70.4059 H   0  0  0  0  0  0  0  0  0  0  0  0
    1.8895   65.8711   69.2577 H   0  0  0  0  0  0  0  0  0  0  0  0
   -0.5235   66.5251   68.5552 H   0  0  0  0  0  0  0  0  0  0  0  0
   -0.1352   68.1087   69.3557 H   0  0  0  0  0  0  0  0  0  0  0  0
   -0.0499   66.3491   66.2701 H   0  0  0  0  0  0  0  0  0  0  0  0
    1.1673   67.1474   64.2535 H   0  0  0  0  0  0  0  0  0  0  0  0
    3.4167   69.8682   66.6078 H   0  0  0  0  0  0  0  0  0  0  0  0
    2.2397   69.1178   68.6666 H   0  0  0  0  0  0  0  0  0  0  0  0
    2.4825   68.7118   63.2396 H   0  0  0  0  0  0  0  0  0  0  0  0
    3.1559   70.1036   64.1959 H   0  0  0  0  0  0  0  0  0  0  0  0
    4.3970   67.8006   64.9200 H   0  0  0  0  0  0  0  0  0  0  0  0
    5.3252   70.4961   64.0743 H   0  0  0  0  0  0  0  0  0  0  0  0
    6.5504   69.3999   64.3278 H   0  0  0  0  0  0  0  0  0  0  0  0
    4.8201   69.8426   61.7295 H   0  0  0  0  0  0  0  0  0  0  0  0
    6.3686   69.2496   61.6228 H   0  0  0  0  0  0  0  0  0  0  0  0
    4.0351   67.4998   62.0170 H   0  0  0  0  0  0  0  0  0  0  0  0
    5.4647   66.8793   62.5968 H   0  0  0  0  0  0  0  0  0  0  0  0
  2  1  2  0
  4  3  2  0
  5  4  1  0
  6  5  1  0
  7  6  1  0
  7  1  1  0
  8  7  1  0
  9  8  1  0
  9  5  2  0
 10  9  1  0
 11  3  1  0
 11 10  2  0
 13  3  1  0
 13 12  1  0
 14 11  1  0
 15 14  1  0
 16  1  1  0
 17 16  1  0
 18 17  1  0
 19 18  2  0
 20 19  1  0
 21 20  2  0
 22 21  1  0
 23 22  2  0
 23 18  1  0
 24 21  1  0
 25 24  1  0
 26 25  1  0
 27 26  1  0
 28 27  1  0
 28 25  1  0
  4 29  1  0
  7 30  1  6
  8 31  1  0
  8 32  1  0
 10 33  1  0
 12 34  1  0
 12 35  1  0
 12 36  1  0
 15 37  1  0
 15 38  1  0
 15 39  1  0
 16 40  1  0
 16 41  1  0
 17 42  1  0
 17 43  1  0
 19 44  1  0
 20 45  1  0
 22 46  1  0
 23 47  1  0
 24 48  1  0
 24 49  1  0
 25 50  1  0
 26 51  1  0
 26 52  1  0
 27 53  1  0
 27 54  1  0
 28 55  1  0
 28 56  1  0
M  CHG  1  21   1
M  END
>  <score>  (4) 
-8.63

$$$$
=
     RDKit          3D

 56 59  0  0  0  0  0  0  0  0999 V2000
   -0.0700   67.2990   68.1050 C   0  0  0  0  0  0  0  0  0  0  0  0
   -1.2590   66.9750   68.0600 O   0  0  0  0  0  0  0  0  0  0  0  0
    2.8830   68.7580   62.7740 C   0  0  0  0  0  0  0  0  0  0  0  0
    3.1750   68.3220   64.0710 C   0  0  0  0  0  0  0  0  0  0  0  0
    2.1360   68.1610   64.9730 C   0  0  0  0  0  0  0  0  0  0  0  0
    2.2730   67.6310   66.6550 S   0  0  0  0  0  0  0  0  0  0  0  0
    0.5680   68.1690   67.0300 C   0  0  1  0  0  0  0  0  0  0  0  0
   -0.1910   68.1320   65.6930 C   0  0  0  0  0  0  0  0  0  0  0  0
    0.8150   68.4220   64.6140 C   0  0  0  0  0  0  0  0  0  0  0  0
    0.5060   68.8430   63.3240 C   0  0  0  0  0  0  0  0  0  0  0  0
    1.5410   69.0200   62.3980 C   0  0  0  0  0  0  0  0  0  0  0  0
    5.1810   69.1010   62.2010 C   0  0  0  0  0  0  0  0  0  0  0  0
    3.8280   68.9600   61.7960 O   0  0  0  0  0  0  0  0  0  0  0  0
    1.3560   69.4390   61.1030 O   0  0  0  0  0  0  0  0  0  0  0  0
    0.0700   69.9210   60.7400 C   0  0  0  0  0  0  0  0  0  0  0  0
    0.7960   66.9030   69.2940 C   0  0  0  0  0  0  0  0  0  0  0  0
   -0.0100   66.1500   70.3520 C   0  0  0  0  0  0  0  0  0  0  0  0
    0.7520   64.9750   70.9170 C   0  0  0  0  0  0  0  0  0  0  0  0
    1.9990   64.6180   70.4070 C   0  0  0  0  0  0  0  0  0  0  0  0
    2.6810   63.5330   70.9470 C   0  0  0  0  0  0  0  0  0  0  0  0
    2.1450   62.8150   71.9600 N   0  0  0  0  0  4  0  0  0  0  0  0
    0.9340   63.1400   72.4690 C   0  0  0  0  0  0  0  0  0  0  0  0
    0.2170   64.2170   71.9600 C   0  0  0  0  0  0  0  0  0  0  0  0
    2.8910   61.6640   72.5300 C   0  0  0  0  0  0  0  0  0  0  0  0
    2.4830   60.3370   71.8980 C   0  0  0  0  0  0  0  0  0  0  0  0
    3.0510   59.0760   72.6010 C   0  0  0  0  0  0  0  0  0  0  0  0
    4.1860   59.0710   71.5590 C   0  0  0  0  0  0  0  0  0  0  0  0
    3.2560   59.8790   70.6330 C   0  0  0  0  0  0  0  0  0  0  0  0
    4.2124   68.1106   64.3695 H   0  0  0  0  0  0  0  0  0  0  0  0
    0.5441   69.1849   67.4511 H   0  0  0  0  0  0  0  0  0  0  0  0
   -0.6367   67.1384   65.5380 H   0  0  0  0  0  0  0  0  0  0  0  0
   -1.0061   68.8706   65.6814 H   0  0  0  0  0  0  0  0  0  0  0  0
   -0.5382   69.0343   63.0356 H   0  0  0  0  0  0  0  0  0  0  0  0
    5.2362   69.1068   63.2996 H   0  0  0  0  0  0  0  0  0  0  0  0
    5.7708   68.2595   61.8086 H   0  0  0  0  0  0  0  0  0  0  0  0
    5.5846   70.0461   61.8086 H   0  0  0  0  0  0  0  0  0  0  0  0
   -0.5101   70.1384   61.6490 H   0  0  0  0  0  0  0  0  0  0  0  0
    0.1774   70.8399   60.1450 H   0  0  0  0  0  0  0  0  0  0  0  0
   -0.4531   69.1579   60.1450 H   0  0  0  0  0  0  0  0  0  0  0  0
    1.6130   66.2566   68.9408 H   0  0  0  0  0  0  0  0  0  0  0  0
    1.1914   67.8215   69.7523 H   0  0  0  0  0  0  0  0  0  0  0  0
   -0.2533   66.8421   71.1716 H   0  0  0  0  0  0  0  0  0  0  0  0
   -0.9212   65.7636   69.8721 H   0  0  0  0  0  0  0  0  0  0  0  0
    2.4422   65.1925   69.5802 H   0  0  0  0  0  0  0  0  0  0  0  0
    3.6670   63.2558   70.5459 H   0  0  0  0  0  0  0  0  0  0  0  0
    0.5127   62.5462   73.2936 H   0  0  0  0  0  0  0  0  0  0  0  0
   -0.7684   64.4709   72.3777 H   0  0  0  0  0  0  0  0  0  0  0  0
    3.9664   61.8207   72.3597 H   0  0  0  0  0  0  0  0  0  0  0  0
    2.6568   61.6106   73.6034 H   0  0  0  0  0  0  0  0  0  0  0  0
    1.4076   60.5632   71.8484 H   0  0  0  0  0  0  0  0  0  0  0  0
    3.3827   59.2410   73.6368 H   0  0  0  0  0  0  0  0  0  0  0  0
    2.4279   58.1864   72.7751 H   0  0  0  0  0  0  0  0  0  0  0  0
    5.0966   59.6033   71.8712 H   0  0  0  0  0  0  0  0  0  0  0  0
    4.6598   58.1355   71.2268 H   0  0  0  0  0  0  0  0  0  0  0  0
    3.7530   60.6913   70.0824 H   0  0  0  0  0  0  0  0  0  0  0  0
    2.7396   59.4068   69.7843 H   0  0  0  0  0  0  0  0  0  0  0  0
  2  1  2  0
  4  3  2  0
  5  4  1  0
  6  5  1  0
  7  6  1  0
  7  1  1  0
  8  7  1  0
  9  8  1  0
  9  5  2  0
 10  9  1  0
 11  3  1  0
 11 10  2  0
 13  3  1  0
 13 12  1  0
 14 11  1  0
 15 14  1  0
 16  1  1  0
 17 16  1  0
 18 17  1  0
 19 18  2  0
 20 19  1  0
 21 20  2  0
 22 21  1  0
 23 22  2  0
 23 18  1  0
 24 21  1  0
 25 24  1  0
 26 25  1  0
 27 26  1  0
 28 27  1  0
 28 25  1  0
  4 29  1  0
  7 30  1  1
  8 31  1  0
  8 32  1  0
 10 33  1  0
 12 34  1  0
 12 35  1  0
 12 36  1  0
 15 37  1  0
 15 38  1  0
 15 39  1  0
 16 40  1  0
 16 41  1  0
 17 42  1  0
 17 43  1  0
 19 44  1  0
 20 45  1  0
 22 46  1  0
 23 47  1  0
 24 48  1  0
 24 49  1  0
 25 50  1  0
 26 51  1  0
 26 52  1  0
 27 53  1  0
 27 54  1  0
 28 55  1  0
 28 56  1  0
M  CHG  1  21   1
M  END
>  <score>  (5) 
-8.623

$$$$
=
     RDKit          3D

 56 59  0  0  0  0  0  0  0  0999 V2000
    4.1170   61.7900   69.9640 C   0  0  0  0  0  0  0  0  0  0  0  0
    4.0940   61.7620   68.7310 O   0  0  0  0  0  0  0  0  0  0  0  0
    3.0780   58.0520   74.8850 C   0  0  0  0  0  0  0  0  0  0  0  0
    4.0130   58.9920   74.4360 C   0  0  0  0  0  0  0  0  0  0  0  0
    3.8360   59.5700   73.1890 C   0  0  0  0  0  0  0  0  0  0  0  0
    4.8910   60.7670   72.4240 S   0  0  0  0  0  0  0  0  0  0  0  0
    4.0990   60.5160   70.7970 C   0  0  1  0  0  0  0  0  0  0  0  0
    2.6790   60.0060   71.0910 C   0  0  0  0  0  0  0  0  0  0  0  0
    2.7520   59.2360   72.3800 C   0  0  0  0  0  0  0  0  0  0  0  0
    1.8050   58.3150   72.8180 C   0  0  0  0  0  0  0  0  0  0  0  0
    1.9680   57.7120   74.0710 C   0  0  0  0  0  0  0  0  0  0  0  0
    4.4380   57.1430   76.6310 C   0  0  0  0  0  0  0  0  0  0  0  0
    3.1500   57.4090   76.0970 O   0  0  0  0  0  0  0  0  0  0  0  0
    1.1030   56.7840   74.6000 O   0  0  0  0  0  0  0  0  0  0  0  0
    1.1390   55.4670   74.0690 C   0  0  0  0  0  0  0  0  0  0  0  0
    4.2470   63.1140   70.7060 C   0  0  0  0  0  0  0  0  0  0  0  0
    2.9470   63.9170   70.6590 C   0  0  0  0  0  0  0  0  0  0  0  0
    1.9130   63.3820   71.6200 C   0  0  0  0  0  0  0  0  0  0  0  0
    2.2460   63.0960   72.9440 C   0  0  0  0  0  0  0  0  0  0  0  0
    1.2740   62.6060   73.8090 C   0  0  0  0  0  0  0  0  0  0  0  0
    0.0080   62.3970   73.3790 N   0  0  0  0  0  4  0  0  0  0  0  0
   -0.3370   62.6640   72.0990 C   0  0  0  0  0  0  0  0  0  0  0  0
    0.6030   63.1550   71.1990 C   0  0  0  0  0  0  0  0  0  0  0  0
   -1.0180   61.8810   74.3200 C   0  0  0  0  0  0  0  0  0  0  0  0
   -1.8830   60.7920   73.6950 C   0  0  0  0  0  0  0  0  0  0  0  0
   -3.3600   60.7750   74.1710 C   0  0  0  0  0  0  0  0  0  0  0  0
   -2.9640   59.6900   75.1910 C   0  0  0  0  0  0  0  0  0  0  0  0
   -1.7650   59.3600   74.2810 C   0  0  0  0  0  0  0  0  0  0  0  0
    4.8741   59.2673   75.0627 H   0  0  0  0  0  0  0  0  0  0  0  0
    4.6454   59.7821   70.1864 H   0  0  0  0  0  0  0  0  0  0  0  0
    1.9861   60.8540   71.1952 H   0  0  0  0  0  0  0  0  0  0  0  0
    2.3105   59.3706   70.2721 H   0  0  0  0  0  0  0  0  0  0  0  0
    0.9392   58.0639   72.1876 H   0  0  0  0  0  0  0  0  0  0  0  0
    4.3886   57.1532   77.7298 H   0  0  0  0  0  0  0  0  0  0  0  0
    4.7801   56.1552   76.2885 H   0  0  0  0  0  0  0  0  0  0  0  0
    5.1434   57.9144   76.2885 H   0  0  0  0  0  0  0  0  0  0  0  0
    1.1589   54.7395   74.8938 H   0  0  0  0  0  0  0  0  0  0  0  0
    0.2452   55.2963   73.4510 H   0  0  0  0  0  0  0  0  0  0  0  0
    2.0408   55.3454   73.4510 H   0  0  0  0  0  0  0  0  0  0  0  0
    4.5029   62.9107   71.7563 H   0  0  0  0  0  0  0  0  0  0  0  0
    5.0343   63.7061   70.2166 H   0  0  0  0  0  0  0  0  0  0  0  0
    3.1665   64.9627   70.9204 H   0  0  0  0  0  0  0  0  0  0  0  0
    2.5366   63.8372   69.6415 H   0  0  0  0  0  0  0  0  0  0  0  0
    3.2734   63.2575   73.3023 H   0  0  0  0  0  0  0  0  0  0  0  0
    1.5369   62.3858   74.8542 H   0  0  0  0  0  0  0  0  0  0  0  0
   -1.3711   62.4912   71.7663 H   0  0  0  0  0  0  0  0  0  0  0  0
    0.3140   63.3636   70.1584 H   0  0  0  0  0  0  0  0  0  0  0  0
   -0.5106   61.4659   75.2033 H   0  0  0  0  0  0  0  0  0  0  0  0
   -1.6769   62.7191   74.5911 H   0  0  0  0  0  0  0  0  0  0  0  0
   -1.5900   61.0006   72.6554 H   0  0  0  0  0  0  0  0  0  0  0  0
   -3.7063   61.7181   74.6189 H   0  0  0  0  0  0  0  0  0  0  0  0
   -4.1889   60.6227   73.4641 H   0  0  0  0  0  0  0  0  0  0  0  0
   -2.6923   60.0736   76.1855 H   0  0  0  0  0  0  0  0  0  0  0  0
   -3.6743   58.9144   75.5132 H   0  0  0  0  0  0  0  0  0  0  0  0
   -0.8253   59.1622   74.8176 H   0  0  0  0  0  0  0  0  0  0  0  0
   -1.7651   58.4724   73.6312 H   0  0  0  0  0  0  0  0  0  0  0  0
  2  1  2  0
  4  3  2  0
  5  4  1  0
  6  5  1  0
  7  6  1  0
  7  1  1  0
  8  7  1  0
  9  8  1  0
  9  5  2  0
 10  9  1  0
 11  3  1  0
 11 10  2  0
 13  3  1  0
 13 12  1  0
 14 11  1  0
 15 14  1  0
 16  1  1  0
 17 16  1  0
 18 17  1  0
 19 18  2  0
 20 19  1  0
 21 20  2  0
 22 21  1  0
 23 22  2  0
 23 18  1  0
 24 21  1  0
 25 24  1  0
 26 25  1  0
 27 26  1  0
 28 27  1  0
 28 25  1  0
  4 29  1  0
  7 30  1  6
  8 31  1  0
  8 32  1  0
 10 33  1  0
 12 34  1  0
 12 35  1  0
 12 36  1  0
 15 37  1  0
 15 38  1  0
 15 39  1  0
 16 40  1  0
 16 41  1  0
 17 42  1  0
 17 43  1  0
 19 44  1  0
 20 45  1  0
 22 46  1  0
 23 47  1  0
 24 48  1  0
 24 49  1  0
 25 50  1  0
 26 51  1  0
 26 52  1  0
 27 53  1  0
 27 54  1  0
 28 55  1  0
 28 56  1  0
M  CHG  1  21   1
M  END
>  <score>  (6) 
-8.117

$$$$
=
     RDKit          3D

 56 59  0  0  0  0  0  0  0  0999 V2000
    1.7170   63.4050   70.5420 C   0  0  0  0  0  0  0  0  0  0  0  0
    1.8870   62.8770   69.4420 O   0  0  0  0  0  0  0  0  0  0  0  0
   -0.8450   58.9440   74.1200 C   0  0  0  0  0  0  0  0  0  0  0  0
   -1.1540   60.2090   73.6060 C   0  0  0  0  0  0  0  0  0  0  0  0
   -0.2030   60.8740   72.8480 C   0  0  0  0  0  0  0  0  0  0  0  0
   -0.3740   62.4720   72.1100 S   0  0  0  0  0  0  0  0  0  0  0  0
    1.4210   62.5860   71.7910 C   0  0  1  0  0  0  0  0  0  0  0  0
    1.9270   61.1370   71.6970 C   0  0  0  0  0  0  0  0  0  0  0  0
    1.0450   60.3090   72.5890 C   0  0  0  0  0  0  0  0  0  0  0  0
    1.3610   59.0470   73.0810 C   0  0  0  0  0  0  0  0  0  0  0  0
    0.4200   58.3600   73.8570 C   0  0  0  0  0  0  0  0  0  0  0  0
   -2.0150   58.6690   76.1900 C   0  0  0  0  0  0  0  0  0  0  0  0
   -1.7020   58.1930   74.8890 O   0  0  0  0  0  0  0  0  0  0  0  0
    0.6270   57.1150   74.4010 O   0  0  0  0  0  0  0  0  0  0  0  0
    1.9660   56.6610   74.5250 C   0  0  0  0  0  0  0  0  0  0  0  0
    1.8780   64.9110   70.7110 C   0  0  0  0  0  0  0  0  0  0  0  0
    0.5290   65.6290   70.6810 C   0  0  0  0  0  0  0  0  0  0  0  0
    0.3860   66.5190   69.4690 C   0  0  0  0  0  0  0  0  0  0  0  0
    1.3740   67.4460   69.1400 C   0  0  0  0  0  0  0  0  0  0  0  0
    1.2190   68.2520   68.0180 C   0  0  0  0  0  0  0  0  0  0  0  0
    0.1150   68.1520   67.2430 N   0  0  0  0  0  4  0  0  0  0  0  0
   -0.8600   67.2630   67.5440 C   0  0  0  0  0  0  0  0  0  0  0  0
   -0.7460   66.4370   68.6570 C   0  0  0  0  0  0  0  0  0  0  0  0
   -0.0300   69.0150   66.0440 C   0  0  0  0  0  0  0  0  0  0  0  0
    0.2860   68.2700   64.7510 C   0  0  0  0  0  0  0  0  0  0  0  0
    1.6430   67.5180   64.7450 C   0  0  0  0  0  0  0  0  0  0  0  0
    2.2570   68.7400   64.0350 C   0  0  0  0  0  0  0  0  0  0  0  0
    0.8360   69.1020   63.5620 C   0  0  0  0  0  0  0  0  0  0  0  0
   -2.1349   60.6674   73.8004 H   0  0  0  0  0  0  0  0  0  0  0  0
    1.9452   63.1190   72.5979 H   0  0  0  0  0  0  0  0  0  0  0  0
    1.8586   60.7788   70.6592 H   0  0  0  0  0  0  0  0  0  0  0  0
    2.9798   61.0661   72.0079 H   0  0  0  0  0  0  0  0  0  0  0  0
    2.3393   58.5939   72.8628 H   0  0  0  0  0  0  0  0  0  0  0  0
   -1.5739   57.9981   76.9419 H   0  0  0  0  0  0  0  0  0  0  0  0
   -1.6063   59.6822   76.3179 H   0  0  0  0  0  0  0  0  0  0  0  0
   -3.1072   58.6953   76.3179 H   0  0  0  0  0  0  0  0  0  0  0  0
    2.2261   56.5728   75.5902 H   0  0  0  0  0  0  0  0  0  0  0  0
    2.0664   55.6786   74.0405 H   0  0  0  0  0  0  0  0  0  0  0  0
    2.6432   57.3797   74.0405 H   0  0  0  0  0  0  0  0  0  0  0  0
    2.3675   65.1115   71.6755 H   0  0  0  0  0  0  0  0  0  0  0  0
    2.4863   65.2875   69.8754 H   0  0  0  0  0  0  0  0  0  0  0  0
   -0.2731   64.8764   70.6651 H   0  0  0  0  0  0  0  0  0  0  0  0
    0.4630   66.2636   71.5770 H   0  0  0  0  0  0  0  0  0  0  0  0
    2.2734   67.5394   69.7663 H   0  0  0  0  0  0  0  0  0  0  0  0
    2.0025   68.9788   67.7577 H   0  0  0  0  0  0  0  0  0  0  0  0
   -1.7508   67.1931   66.9024 H   0  0  0  0  0  0  0  0  0  0  0  0
   -1.5459   65.7210   68.8966 H   0  0  0  0  0  0  0  0  0  0  0  0
   -1.0657   69.3824   65.9961 H   0  0  0  0  0  0  0  0  0  0  0  0
    0.6872   69.8437   66.1380 H   0  0  0  0  0  0  0  0  0  0  0  0
   -0.6844   67.7574   64.6773 H   0  0  0  0  0  0  0  0  0  0  0  0
    2.0568   67.3145   65.7437 H   0  0  0  0  0  0  0  0  0  0  0  0
    1.7358   66.5048   64.3268 H   0  0  0  0  0  0  0  0  0  0  0  0
    2.7171   69.4777   64.7088 H   0  0  0  0  0  0  0  0  0  0  0  0
    3.0917   68.6359   63.3262 H   0  0  0  0  0  0  0  0  0  0  0  0
    0.5991   70.1752   63.6073 H   0  0  0  0  0  0  0  0  0  0  0  0
    0.5092   68.9123   62.5289 H   0  0  0  0  0  0  0  0  0  0  0  0
  2  1  2  0
  4  3  2  0
  5  4  1  0
  6  5  1  0
  7  6  1  0
  7  1  1  0
  8  7  1  0
  9  8  1  0
  9  5  2  0
 10  9  1  0
 11  3  1  0
 11 10  2  0
 13  3  1  0
 13 12  1  0
 14 11  1  0
 15 14  1  0
 16  1  1  0
 17 16  1  0
 18 17  1  0
 19 18  2  0
 20 19  1  0
 21 20  2  0
 22 21  1  0
 23 22  2  0
 23 18  1  0
 24 21  1  0
 25 24  1  0
 26 25  1  0
 27 26  1  0
 28 27  1  0
 28 25  1  0
  4 29  1  0
  7 30  1  1
  8 31  1  0
  8 32  1  0
 10 33  1  0
 12 34  1  0
 12 35  1  0
 12 36  1  0
 15 37  1  0
 15 38  1  0
 15 39  1  0
 16 40  1  0
 16 41  1  0
 17 42  1  0
 17 43  1  0
 19 44  1  0
 20 45  1  0
 22 46  1  0
 23 47  1  0
 24 48  1  0
 24 49  1  0
 25 50  1  0
 26 51  1  0
 26 52  1  0
 27 53  1  0
 27 54  1  0
 28 55  1  0
 28 56  1  0
M  CHG  1  21   1
M  END
>  <score>  (7) 
-8.007

$$$$
=
     RDKit          3D

 56 59  0  0  0  0  0  0  0  0999 V2000
    1.8580   63.3570   70.9040 C   0  0  0  0  0  0  0  0  0  0  0  0
    2.8420   64.0990   70.8460 O   0  0  0  0  0  0  0  0  0  0  0  0
    2.5850   58.2710   74.4920 C   0  0  0  0  0  0  0  0  0  0  0  0
    3.3570   59.2630   73.8750 C   0  0  0  0  0  0  0  0  0  0  0  0
    2.7220   60.2220   73.1030 C   0  0  0  0  0  0  0  0  0  0  0  0
    3.4960   61.5540   72.2330 S   0  0  0  0  0  0  0  0  0  0  0  0
    1.9820   61.8840   71.2650 C   0  0  1  0  0  0  0  0  0  0  0  0
    0.8120   61.3700   72.1210 C   0  0  0  0  0  0  0  0  0  0  0  0
    1.3390   60.2200   72.9330 C   0  0  0  0  0  0  0  0  0  0  0  0
    0.5560   59.2500   73.5500 C   0  0  0  0  0  0  0  0  0  0  0  0
    1.1760   58.2650   74.3280 C   0  0  0  0  0  0  0  0  0  0  0  0
    4.0170   57.6240   76.2960 C   0  0  0  0  0  0  0  0  0  0  0  0
    3.1000   57.2660   75.2730 O   0  0  0  0  0  0  0  0  0  0  0  0
    0.5050   57.2560   74.9760 O   0  0  0  0  0  0  0  0  0  0  0  0
   -0.7930   56.9160   74.5090 C   0  0  0  0  0  0  0  0  0  0  0  0
    0.4550   63.9140   70.6940 C   0  0  0  0  0  0  0  0  0  0  0  0
    0.3800   65.4000   71.0450 C   0  0  0  0  0  0  0  0  0  0  0  0
    0.3570   66.2740   69.8140 C   0  0  0  0  0  0  0  0  0  0  0  0
   -0.7270   66.2480   68.9370 C   0  0  0  0  0  0  0  0  0  0  0  0
   -0.7240   67.0650   67.8110 C   0  0  0  0  0  0  0  0  0  0  0  0
    0.3230   67.8810   67.5530 N   0  0  0  0  0  4  0  0  0  0  0  0
    1.3880   67.9210   68.3870 C   0  0  0  0  0  0  0  0  0  0  0  0
    1.4270   67.1220   69.5250 C   0  0  0  0  0  0  0  0  0  0  0  0
    0.3050   68.7530   66.3510 C   0  0  0  0  0  0  0  0  0  0  0  0
    0.8110   68.0330   65.1050 C   0  0  0  0  0  0  0  0  0  0  0  0
    2.2680   67.5080   65.2000 C   0  0  0  0  0  0  0  0  0  0  0  0
    2.7220   68.7930   64.4810 C   0  0  0  0  0  0  0  0  0  0  0  0
    1.2920   68.9090   63.9180 C   0  0  0  0  0  0  0  0  0  0  0  0
    4.4496   59.2805   74.0012 H   0  0  0  0  0  0  0  0  0  0  0  0
    1.9974   61.3661   70.2947 H   0  0  0  0  0  0  0  0  0  0  0  0
    0.4500   62.1682   72.7857 H   0  0  0  0  0  0  0  0  0  0  0  0
   -0.0299   61.0527   71.4882 H   0  0  0  0  0  0  0  0  0  0  0  0
   -0.5372   59.2568   73.4281 H   0  0  0  0  0  0  0  0  0  0  0  0
    3.5577   57.4447   77.2793 H   0  0  0  0  0  0  0  0  0  0  0  0
    4.9285   57.0157   76.2007 H   0  0  0  0  0  0  0  0  0  0  0  0
    4.2753   58.6890   76.2007 H   0  0  0  0  0  0  0  0  0  0  0  0
   -1.4578   56.7419   75.3679 H   0  0  0  0  0  0  0  0  0  0  0  0
   -1.1907   57.7403   73.8987 H   0  0  0  0  0  0  0  0  0  0  0  0
   -0.7355   56.0026   73.8987 H   0  0  0  0  0  0  0  0  0  0  0  0
    0.1729   63.7819   69.6390 H   0  0  0  0  0  0  0  0  0  0  0  0
   -0.2337   63.3693   71.3565 H   0  0  0  0  0  0  0  0  0  0  0  0
   -0.5363   65.5814   71.6259 H   0  0  0  0  0  0  0  0  0  0  0  0
    1.2782   65.6566   71.6258 H   0  0  0  0  0  0  0  0  0  0  0  0
   -1.5813   65.5839   69.1349 H   0  0  0  0  0  0  0  0  0  0  0  0
   -1.5823   67.0470   67.1233 H   0  0  0  0  0  0  0  0  0  0  0  0
    2.2307   68.5916   68.1629 H   0  0  0  0  0  0  0  0  0  0  0  0
    2.2986   67.1585   70.1951 H   0  0  0  0  0  0  0  0  0  0  0  0
   -0.7277   69.0868   66.1717 H   0  0  0  0  0  0  0  0  0  0  0  0
    0.9750   69.6040   66.5429 H   0  0  0  0  0  0  0  0  0  0  0  0
   -0.0601   67.3700   64.9976 H   0  0  0  0  0  0  0  0  0  0  0  0
    2.6486   67.4003   66.2264 H   0  0  0  0  0  0  0  0  0  0  0  0
    2.5447   66.5119   64.8242 H   0  0  0  0  0  0  0  0  0  0  0  0
    3.0180   69.6130   65.1518 H   0  0  0  0  0  0  0  0  0  0  0  0
    3.6037   68.8053   63.8233 H   0  0  0  0  0  0  0  0  0  0  0  0
    0.8856   69.9311   63.9106 H   0  0  0  0  0  0  0  0  0  0  0  0
    1.0617   68.6407   62.8764 H   0  0  0  0  0  0  0  0  0  0  0  0
  2  1  2  0
  4  3  2  0
  5  4  1  0
  6  5  1  0
  7  6  1  0
  7  1  1  0
  8  7  1  0
  9  8  1  0
  9  5  2  0
 10  9  1  0
 11  3  1  0
 11 10  2  0
 13  3  1  0
 13 12  1  0
 14 11  1  0
 15 14  1  0
 16  1  1  0
 17 16  1  0
 18 17  1  0
 19 18  2  0
 20 19  1  0
 21 20  2  0
 22 21  1  0
 23 22  2  0
 23 18  1  0
 24 21  1  0
 25 24  1  0
 26 25  1  0
 27 26  1  0
 28 27  1  0
 28 25  1  0
  4 29  1  0
  7 30  1  6
  8 31  1  0
  8 32  1  0
 10 33  1  0
 12 34  1  0
 12 35  1  0
 12 36  1  0
 15 37  1  0
 15 38  1  0
 15 39  1  0
 16 40  1  0
 16 41  1  0
 17 42  1  0
 17 43  1  0
 19 44  1  0
 20 45  1  0
 22 46  1  0
 23 47  1  0
 24 48  1  0
 24 49  1  0
 25 50  1  0
 26 51  1  0
 26 52  1  0
 27 53  1  0
 27 54  1  0
 28 55  1  0
 28 56  1  0
M  CHG  1  21   1
M  END
>  <score>  (8) 
-7.948

$$$$
=
     RDKit          3D

 56 59  0  0  0  0  0  0  0  0999 V2000
   -0.4850   56.8760   74.6830 C   0  0  0  0  0  0  0  0  0  0  0  0
   -0.8960   56.0470   75.4990 O   0  0  0  0  0  0  0  0  0  0  0  0
    0.6550   63.0370   74.7390 C   0  0  0  0  0  0  0  0  0  0  0  0
    0.8220   61.9130   75.5550 C   0  0  0  0  0  0  0  0  0  0  0  0
    0.3530   60.6870   75.1110 C   0  0  0  0  0  0  0  0  0  0  0  0
    0.4500   59.1460   75.9750 S   0  0  0  0  0  0  0  0  0  0  0  0
   -0.7540   58.3650   74.8450 C   0  0  1  0  0  0  0  0  0  0  0  0
   -0.6610   59.1440   73.5230 C   0  0  0  0  0  0  0  0  0  0  0  0
   -0.2750   60.5540   73.8750 C   0  0  0  0  0  0  0  0  0  0  0  0
   -0.4360   61.6590   73.0450 C   0  0  0  0  0  0  0  0  0  0  0  0
    0.0220   62.9100   73.4760 C   0  0  0  0  0  0  0  0  0  0  0  0
    1.4300   64.5480   76.4250 C   0  0  0  0  0  0  0  0  0  0  0  0
    1.0710   64.3030   75.0730 O   0  0  0  0  0  0  0  0  0  0  0  0
   -0.0910   64.0680   72.7470 O   0  0  0  0  0  0  0  0  0  0  0  0
    0.4640   64.0850   71.4390 C   0  0  0  0  0  0  0  0  0  0  0  0
    0.3870   56.4420   73.5120 C   0  0  0  0  0  0  0  0  0  0  0  0
    1.8750   56.5470   73.8480 C   0  0  0  0  0  0  0  0  0  0  0  0
    2.5650   57.6200   73.0410 C   0  0  0  0  0  0  0  0  0  0  0  0
    3.1960   58.6950   73.6670 C   0  0  0  0  0  0  0  0  0  0  0  0
    3.8270   59.6680   72.8990 C   0  0  0  0  0  0  0  0  0  0  0  0
    3.8290   59.5880   71.5490 N   0  0  0  0  0  4  0  0  0  0  0  0
    3.2210   58.5570   70.9190 C   0  0  0  0  0  0  0  0  0  0  0  0
    2.5790   57.5610   71.6470 C   0  0  0  0  0  0  0  0  0  0  0  0
    4.5150   60.6330   70.7460 C   0  0  0  0  0  0  0  0  0  0  0  0
    3.6710   61.8950   70.5960 C   0  0  0  0  0  0  0  0  0  0  0  0
    2.6840   61.8830   69.3990 C   0  0  0  0  0  0  0  0  0  0  0  0
    3.7420   62.6520   68.5850 C   0  0  0  0  0  0  0  0  0  0  0  0
    4.3390   63.1250   69.9250 C   0  0  0  0  0  0  0  0  0  0  0  0
    1.3175   62.0010   76.5331 H   0  0  0  0  0  0  0  0  0  0  0  0
   -1.7784   58.4155   75.2425 H   0  0  0  0  0  0  0  0  0  0  0  0
    0.1024   58.6940   72.8713 H   0  0  0  0  0  0  0  0  0  0  0  0
   -1.6191   59.1205   72.9831 H   0  0  0  0  0  0  0  0  0  0  0  0
   -0.9174   61.5511   72.0618 H   0  0  0  0  0  0  0  0  0  0  0  0
    0.7072   64.0547   77.0915 H   0  0  0  0  0  0  0  0  0  0  0  0
    2.4367   64.1477   76.6154 H   0  0  0  0  0  0  0  0  0  0  0  0
    1.4242   65.6314   76.6154 H   0  0  0  0  0  0  0  0  0  0  0  0
    1.5614   64.1186   71.5067 H   0  0  0  0  0  0  0  0  0  0  0  0
    0.1576   63.1770   70.8989 H   0  0  0  0  0  0  0  0  0  0  0  0
    0.1026   64.9725   70.8989 H   0  0  0  0  0  0  0  0  0  0  0  0
    0.1511   55.3978   73.2592 H   0  0  0  0  0  0  0  0  0  0  0  0
    0.1785   57.1090   72.6625 H   0  0  0  0  0  0  0  0  0  0  0  0
    1.9814   56.7836   74.9170 H   0  0  0  0  0  0  0  0  0  0  0  0
    2.3463   55.5836   73.6036 H   0  0  0  0  0  0  0  0  0  0  0  0
    3.1946   58.7730   74.7642 H   0  0  0  0  0  0  0  0  0  0  0  0
    4.3297   60.5114   73.3949 H   0  0  0  0  0  0  0  0  0  0  0  0
    3.2345   58.5058   69.8203 H   0  0  0  0  0  0  0  0  0  0  0  0
    2.0836   56.7289   71.1252 H   0  0  0  0  0  0  0  0  0  0  0  0
    5.4605   60.8967   71.2424 H   0  0  0  0  0  0  0  0  0  0  0  0
    4.6899   60.2236   69.7401 H   0  0  0  0  0  0  0  0  0  0  0  0
    3.3414   61.9353   71.6447 H   0  0  0  0  0  0  0  0  0  0  0  0
    2.4493   60.8808   69.0110 H   0  0  0  0  0  0  0  0  0  0  0  0
    1.6549   62.2579   69.5007 H   0  0  0  0  0  0  0  0  0  0  0  0
    4.4097   62.0160   67.9852 H   0  0  0  0  0  0  0  0  0  0  0  0
    3.4576   63.3645   67.7967 H   0  0  0  0  0  0  0  0  0  0  0  0
    5.4384   63.1238   69.9609 H   0  0  0  0  0  0  0  0  0  0  0  0
    4.1704   64.1453   70.3000 H   0  0  0  0  0  0  0  0  0  0  0  0
  2  1  2  0
  4  3  2  0
  5  4  1  0
  6  5  1  0
  7  6  1  0
  7  1  1  0
  8  7  1  0
  9  8  1  0
  9  5  2  0
 10  9  1  0
 11  3  1  0
 11 10  2  0
 13  3  1  0
 13 12  1  0
 14 11  1  0
 15 14  1  0
 16  1  1  0
 17 16  1  0
 18 17  1  0
 19 18  2  0
 20 19  1  0
 21 20  2  0
 22 21  1  0
 23 22  2  0
 23 18  1  0
 24 21  1  0
 25 24  1  0
 26 25  1  0
 27 26  1  0
 28 27  1  0
 28 25  1  0
  4 29  1  0
  7 30  1  1
  8 31  1  0
  8 32  1  0
 10 33  1  0
 12 34  1  0
 12 35  1  0
 12 36  1  0
 15 37  1  0
 15 38  1  0
 15 39  1  0
 16 40  1  0
 16 41  1  0
 17 42  1  0
 17 43  1  0
 19 44  1  0
 20 45  1  0
 22 46  1  0
 23 47  1  0
 24 48  1  0
 24 49  1  0
 25 50  1  0
 26 51  1  0
 26 52  1  0
 27 53  1  0
 27 54  1  0
 28 55  1  0
 28 56  1  0
M  CHG  1  21   1
M  END
>  <score>  (9) 
-7.731

$$$$
