=
     RDKit          3D

 36 38  0  0  0  0  0  0  0  0999 V2000
   -2.6270   67.7630   67.2690 C   0  0  0  0  0  0  0  0  0  0  0  0
   -1.9260   68.3260   66.1120 N   0  0  0  0  0  0  0  0  0  0  0  0
   -0.6580   68.7270   66.0780 C   0  0  0  0  0  0  0  0  0  0  0  0
    0.1380   68.7110   67.1390 N   0  0  0  0  0  4  0  0  0  0  0  0
    1.4680   69.0450   67.1230 C   0  0  0  0  0  0  0  0  0  0  0  0
    1.9840   69.6070   68.3030 C   0  0  0  0  0  0  0  0  0  0  0  0
    3.3210   70.0060   68.3950 C   0  0  0  0  0  0  0  0  0  0  0  0
    4.1710   69.8340   67.3090 C   0  0  0  0  0  0  0  0  0  0  0  0
    3.7010   69.2430   66.1390 C   0  0  0  0  0  0  0  0  0  0  0  0
    2.3610   68.8300   66.0450 C   0  0  0  0  0  0  0  0  0  0  0  0
    1.9690   68.0730   64.8190 C   0  0  0  0  0  0  0  0  0  0  0  0
    0.7920   68.2730   64.2570 N   0  0  0  0  0  4  0  0  0  0  0  0
   -0.1640   69.2450   64.7850 C   0  0  0  0  0  0  0  0  0  0  0  0
    0.3950   67.5890   63.2590 O   0  0  0  0  0  1  0  0  0  0  0  0
    5.8100   70.3320   67.4190 Cl  0  0  0  0  0  0  0  0  0  0  0  0
    2.9070   67.0740   64.2460 C   0  0  0  0  0  0  0  0  0  0  0  0
    3.6740   67.4170   63.1260 C   0  0  0  0  0  0  0  0  0  0  0  0
    4.5240   66.4680   62.5560 C   0  0  0  0  0  0  0  0  0  0  0  0
    4.6080   65.1870   63.1010 C   0  0  0  0  0  0  0  0  0  0  0  0
    3.8430   64.8490   64.2160 C   0  0  0  0  0  0  0  0  0  0  0  0
    2.9890   65.7910   64.7900 C   0  0  0  0  0  0  0  0  0  0  0  0
   -2.1639   68.1349   68.1949 H   0  0  0  0  0  0  0  0  0  0  0  0
   -3.6841   68.0660   67.2403 H   0  0  0  0  0  0  0  0  0  0  0  0
   -2.5593   66.6655   67.2403 H   0  0  0  0  0  0  0  0  0  0  0  0
   -2.4673   68.4204   65.2408 H   0  0  0  0  0  0  0  0  0  0  0  0
   -0.2725   68.4272   68.0400 H   0  0  0  0  0  0  0  0  0  0  0  0
    1.3225   69.7357   69.1724 H   0  0  0  0  0  0  0  0  0  0  0  0
    3.6993   70.4552   69.3251 H   0  0  0  0  0  0  0  0  0  0  0  0
    4.3804   69.0990   65.2860 H   0  0  0  0  0  0  0  0  0  0  0  0
    0.3314   70.2157   64.9342 H   0  0  0  0  0  0  0  0  0  0  0  0
   -0.9977   69.3888   64.0819 H   0  0  0  0  0  0  0  0  0  0  0  0
    3.6071   68.4281   62.6980 H   0  0  0  0  0  0  0  0  0  0  0  0
    5.1286   66.7309   61.6755 H   0  0  0  0  0  0  0  0  0  0  0  0
    5.2795   64.4417   62.6499 H   0  0  0  0  0  0  0  0  0  0  0  0
    3.9127   63.8381   64.6440 H   0  0  0  0  0  0  0  0  0  0  0  0
    2.3825   65.5238   65.6679 H   0  0  0  0  0  0  0  0  0  0  0  0
  2  1  1  0
  3  2  1  0
  4  3  2  0
  5  4  1  0
  6  5  2  0
  7  6  1  0
  8  7  2  0
  9  8  1  0
 10  9  2  0
 10  5  1  0
 11 10  1  0
 12 11  2  0
 13 12  1  0
 13  3  1  0
 14 12  1  0
 15  8  1  0
 16 11  1  0
 17 16  2  0
 18 17  1  0
 19 18  2  0
 20 19  1  0
 21 20  2  0
 21 16  1  0
  1 22  1  0
  1 23  1  0
  1 24  1  0
  2 25  1  0
  4 26  1  0
  6 27  1  0
  7 28  1  0
  9 29  1  0
 13 30  1  0
 13 31  1  0
 17 32  1  0
 18 33  1  0
 19 34  1  0
 20 35  1  0
 21 36  1  0
M  CHG  3   4   1  12   1  14  -1
M  END
>  <score>  (1) 
-10.138

$$$$
=
     RDKit          3D

 36 38  0  0  0  0  0  0  0  0999 V2000
   -2.5610   68.9520   65.6360 C   0  0  0  0  0  0  0  0  0  0  0  0
   -1.4800   68.1390   66.1990 N   0  0  0  0  0  0  0  0  0  0  0  0
   -0.2330   68.0600   65.7440 C   0  0  0  0  0  0  0  0  0  0  0  0
    0.1840   68.6940   64.6550 N   0  0  0  0  0  4  0  0  0  0  0  0
    1.4780   68.6970   64.2000 C   0  0  0  0  0  0  0  0  0  0  0  0
    1.6500   68.8060   62.8100 C   0  0  0  0  0  0  0  0  0  0  0  0
    2.9230   68.7970   62.2310 C   0  0  0  0  0  0  0  0  0  0  0  0
    4.0490   68.6970   63.0380 C   0  0  0  0  0  0  0  0  0  0  0  0
    3.9150   68.6270   64.4230 C   0  0  0  0  0  0  0  0  0  0  0  0
    2.6380   68.6470   65.0110 C   0  0  0  0  0  0  0  0  0  0  0  0
    2.5800   68.7190   66.5010 C   0  0  0  0  0  0  0  0  0  0  0  0
    1.6640   68.0420   67.1680 N   0  0  0  0  0  4  0  0  0  0  0  0
    0.6910   67.1830   66.4940 C   0  0  0  0  0  0  0  0  0  0  0  0
    1.5350   68.1430   68.4310 O   0  0  0  0  0  1  0  0  0  0  0  0
    5.6110   68.6770   62.3280 Cl  0  0  0  0  0  0  0  0  0  0  0  0
    3.5470   69.5780   67.2300 C   0  0  0  0  0  0  0  0  0  0  0  0
    4.8300   69.7650   66.7040 C   0  0  0  0  0  0  0  0  0  0  0  0
    5.7580   70.5360   67.4060 C   0  0  0  0  0  0  0  0  0  0  0  0
    5.4070   71.1150   68.6250 C   0  0  0  0  0  0  0  0  0  0  0  0
    4.1270   70.9270   69.1470 C   0  0  0  0  0  0  0  0  0  0  0  0
    3.1950   70.1560   68.4510 C   0  0  0  0  0  0  0  0  0  0  0  0
   -3.1500   69.3950   66.4526 H   0  0  0  0  0  0  0  0  0  0  0  0
   -2.1324   69.7535   65.0164 H   0  0  0  0  0  0  0  0  0  0  0  0
   -3.2121   68.3179   65.0164 H   0  0  0  0  0  0  0  0  0  0  0  0
   -1.7083   67.5730   67.0287 H   0  0  0  0  0  0  0  0  0  0  0  0
   -0.5145   69.2218   64.1124 H   0  0  0  0  0  0  0  0  0  0  0  0
    0.7650   68.9004   62.1636 H   0  0  0  0  0  0  0  0  0  0  0  0
    3.0323   68.8690   61.1388 H   0  0  0  0  0  0  0  0  0  0  0  0
    4.8104   68.5559   65.0580 H   0  0  0  0  0  0  0  0  0  0  0  0
    1.2076   66.5022   65.8014 H   0  0  0  0  0  0  0  0  0  0  0  0
    0.1391   66.5750   67.2259 H   0  0  0  0  0  0  0  0  0  0  0  0
    5.1058   69.3070   65.7427 H   0  0  0  0  0  0  0  0  0  0  0  0
    6.7679   70.6871   66.9969 H   0  0  0  0  0  0  0  0  0  0  0  0
    6.1409   71.7213   69.1762 H   0  0  0  0  0  0  0  0  0  0  0  0
    3.8522   71.3868   70.1078 H   0  0  0  0  0  0  0  0  0  0  0  0
    2.1865   70.0042   68.8631 H   0  0  0  0  0  0  0  0  0  0  0  0
  2  1  1  0
  3  2  1  0
  4  3  2  0
  5  4  1  0
  6  5  2  0
  7  6  1  0
  8  7  2  0
  9  8  1  0
 10  9  2  0
 10  5  1  0
 11 10  1  0
 12 11  2  0
 13 12  1  0
 13  3  1  0
 14 12  1  0
 15  8  1  0
 16 11  1  0
 17 16  2  0
 18 17  1  0
 19 18  2  0
 20 19  1  0
 21 20  2  0
 21 16  1  0
  1 22  1  0
  1 23  1  0
  1 24  1  0
  2 25  1  0
  4 26  1  0
  6 27  1  0
  7 28  1  0
  9 29  1  0
 13 30  1  0
 13 31  1  0
 17 32  1  0
 18 33  1  0
 19 34  1  0
 20 35  1  0
 21 36  1  0
M  CHG  3   4   1  12   1  14  -1
M  END
>  <score>  (2) 
-10.057

$$$$
=
     RDKit          3D

 36 38  0  0  0  0  0  0  0  0999 V2000
    4.1610   63.8300   64.2130 C   0  0  0  0  0  0  0  0  0  0  0  0
    4.1760   65.2170   63.7430 N   0  0  0  0  0  0  0  0  0  0  0  0
    3.4770   66.2290   64.2490 C   0  0  0  0  0  0  0  0  0  0  0  0
    2.6130   66.0870   65.2470 N   0  0  0  0  0  4  0  0  0  0  0  0
    1.9320   67.1180   65.8430 C   0  0  0  0  0  0  0  0  0  0  0  0
    0.6610   66.8110   66.3570 C   0  0  0  0  0  0  0  0  0  0  0  0
   -0.1330   67.7870   66.9670 C   0  0  0  0  0  0  0  0  0  0  0  0
    0.3410   69.0880   67.0880 C   0  0  0  0  0  0  0  0  0  0  0  0
    1.6130   69.4150   66.6260 C   0  0  0  0  0  0  0  0  0  0  0  0
    2.4200   68.4360   66.0210 C   0  0  0  0  0  0  0  0  0  0  0  0
    3.8220   68.8240   65.6860 C   0  0  0  0  0  0  0  0  0  0  0  0
    4.3870   68.3950   64.5730 N   0  0  0  0  0  4  0  0  0  0  0  0
    3.6720   67.5500   63.6170 C   0  0  0  0  0  0  0  0  0  0  0  0
    5.6050   68.6410   64.2950 O   0  0  0  0  0  1  0  0  0  0  0  0
   -0.6360   70.2890   67.8290 Cl  0  0  0  0  0  0  0  0  0  0  0  0
    4.5880   69.6800   66.6270 C   0  0  0  0  0  0  0  0  0  0  0  0
    5.8140   70.2200   66.2200 C   0  0  0  0  0  0  0  0  0  0  0  0
    6.5590   70.9890   67.1140 C   0  0  0  0  0  0  0  0  0  0  0  0
    6.0850   71.2180   68.4060 C   0  0  0  0  0  0  0  0  0  0  0  0
    4.8630   70.6790   68.8080 C   0  0  0  0  0  0  0  0  0  0  0  0
    4.1130   69.9070   67.9200 C   0  0  0  0  0  0  0  0  0  0  0  0
    4.1608   63.8156   65.3129 H   0  0  0  0  0  0  0  0  0  0  0  0
    3.2574   63.3261   63.8396 H   0  0  0  0  0  0  0  0  0  0  0  0
    5.0535   63.3066   63.8396 H   0  0  0  0  0  0  0  0  0  0  0  0
    4.7878   65.4295   62.9421 H   0  0  0  0  0  0  0  0  0  0  0  0
    2.4417   65.1343   65.5991 H   0  0  0  0  0  0  0  0  0  0  0  0
    0.2826   65.7812   66.2779 H   0  0  0  0  0  0  0  0  0  0  0  0
   -1.1305   67.5258   67.3502 H   0  0  0  0  0  0  0  0  0  0  0  0
    1.9879   70.4434   66.7349 H   0  0  0  0  0  0  0  0  0  0  0  0
    2.6969   67.9983   63.3759 H   0  0  0  0  0  0  0  0  0  0  0  0
    4.2454   67.4514   62.6835 H   0  0  0  0  0  0  0  0  0  0  0  0
    6.1875   70.0389   65.2013 H   0  0  0  0  0  0  0  0  0  0  0  0
    7.5227   71.4160   66.7995 H   0  0  0  0  0  0  0  0  0  0  0  0
    6.6757   71.8243   69.1085 H   0  0  0  0  0  0  0  0  0  0  0  0
    4.4900   70.8627   69.8264 H   0  0  0  0  0  0  0  0  0  0  0  0
    3.1509   69.4788   68.2376 H   0  0  0  0  0  0  0  0  0  0  0  0
  2  1  1  0
  3  2  1  0
  4  3  2  0
  5  4  1  0
  6  5  2  0
  7  6  1  0
  8  7  2  0
  9  8  1  0
 10  9  2  0
 10  5  1  0
 11 10  1  0
 12 11  2  0
 13 12  1  0
 13  3  1  0
 14 12  1  0
 15  8  1  0
 16 11  1  0
 17 16  2  0
 18 17  1  0
 19 18  2  0
 20 19  1  0
 21 20  2  0
 21 16  1  0
  1 22  1  0
  1 23  1  0
  1 24  1  0
  2 25  1  0
  4 26  1  0
  6 27  1  0
  7 28  1  0
  9 29  1  0
 13 30  1  0
 13 31  1  0
 17 32  1  0
 18 33  1  0
 19 34  1  0
 20 35  1  0
 21 36  1  0
M  CHG  3   4   1  12   1  14  -1
M  END
>  <score>  (3) 
-8.949

$$$$
=
     RDKit          3D

 36 38  0  0  0  0  0  0  0  0999 V2000
    7.5200   70.5370   69.6300 C   0  0  0  0  0  0  0  0  0  0  0  0
    6.1830   71.0930   69.4080 N   0  0  0  0  0  0  0  0  0  0  0  0
    5.3690   70.8080   68.3960 C   0  0  0  0  0  0  0  0  0  0  0  0
    5.7020   69.9930   67.4030 N   0  0  0  0  0  4  0  0  0  0  0  0
    4.8630   69.6180   66.3850 C   0  0  0  0  0  0  0  0  0  0  0  0
    5.4670   69.3440   65.1470 C   0  0  0  0  0  0  0  0  0  0  0  0
    4.7090   68.9740   64.0320 C   0  0  0  0  0  0  0  0  0  0  0  0
    3.3290   68.8550   64.1430 C   0  0  0  0  0  0  0  0  0  0  0  0
    2.7030   69.0810   65.3660 C   0  0  0  0  0  0  0  0  0  0  0  0
    3.4610   69.4430   66.4930 C   0  0  0  0  0  0  0  0  0  0  0  0
    2.7410   69.5220   67.7980 C   0  0  0  0  0  0  0  0  0  0  0  0
    3.0380   70.4690   68.6690 N   0  0  0  0  0  4  0  0  0  0  0  0
    4.0550   71.4830   68.3950 C   0  0  0  0  0  0  0  0  0  0  0  0
    2.5000   70.5180   69.8220 O   0  0  0  0  0  1  0  0  0  0  0  0
    2.3960   68.4100   62.7730 Cl  0  0  0  0  0  0  0  0  0  0  0  0
    1.7010   68.5140   68.1220 C   0  0  0  0  0  0  0  0  0  0  0  0
    0.5040   68.5050   67.3960 C   0  0  0  0  0  0  0  0  0  0  0  0
   -0.4960   67.5890   67.7240 C   0  0  0  0  0  0  0  0  0  0  0  0
   -0.3010   66.6860   68.7700 C   0  0  0  0  0  0  0  0  0  0  0  0
    0.8920   66.6960   69.4910 C   0  0  0  0  0  0  0  0  0  0  0  0
    1.8950   67.6110   69.1700 C   0  0  0  0  0  0  0  0  0  0  0  0
    7.7095   70.4582   70.7107 H   0  0  0  0  0  0  0  0  0  0  0  0
    7.5823   69.5384   69.1730 H   0  0  0  0  0  0  0  0  0  0  0  0
    8.2721   71.1970   69.1730 H   0  0  0  0  0  0  0  0  0  0  0  0
    5.8401   71.7708   70.1037 H   0  0  0  0  0  0  0  0  0  0  0  0
    6.6600   69.6147   67.3964 H   0  0  0  0  0  0  0  0  0  0  0  0
    6.5601   69.4222   65.0526 H   0  0  0  0  0  0  0  0  0  0  0  0
    5.2038   68.7776   63.0694 H   0  0  0  0  0  0  0  0  0  0  0  0
    1.6113   68.9759   65.4505 H   0  0  0  0  0  0  0  0  0  0  0  0
    3.8706   71.9438   67.4133 H   0  0  0  0  0  0  0  0  0  0  0  0
    4.0266   72.2752   69.1577 H   0  0  0  0  0  0  0  0  0  0  0  0
    0.3526   69.2166   66.5710 H   0  0  0  0  0  0  0  0  0  0  0  0
   -1.4389   67.5786   67.1576 H   0  0  0  0  0  0  0  0  0  0  0  0
   -1.0908   65.9645   69.0262 H   0  0  0  0  0  0  0  0  0  0  0  0
    1.0427   65.9817   70.3139 H   0  0  0  0  0  0  0  0  0  0  0  0
    2.8356   67.6214   69.7403 H   0  0  0  0  0  0  0  0  0  0  0  0
  2  1  1  0
  3  2  1  0
  4  3  2  0
  5  4  1  0
  6  5  2  0
  7  6  1  0
  8  7  2  0
  9  8  1  0
 10  9  2  0
 10  5  1  0
 11 10  1  0
 12 11  2  0
 13 12  1  0
 13  3  1  0
 14 12  1  0
 15  8  1  0
 16 11  1  0
 17 16  2  0
 18 17  1  0
 19 18  2  0
 20 19  1  0
 21 20  2  0
 21 16  1  0
  1 22  1  0
  1 23  1  0
  1 24  1  0
  2 25  1  0
  4 26  1  0
  6 27  1  0
  7 28  1  0
  9 29  1  0
 13 30  1  0
 13 31  1  0
 17 32  1  0
 18 33  1  0
 19 34  1  0
 20 35  1  0
 21 36  1  0
M  CHG  3   4   1  12   1  14  -1
M  END
>  <score>  (4) 
-8.51

$$$$
=
     RDKit          3D

 36 38  0  0  0  0  0  0  0  0999 V2000
   -0.9410   62.1110   76.7090 C   0  0  0  0  0  0  0  0  0  0  0  0
   -0.9780   61.4760   75.3890 N   0  0  0  0  0  0  0  0  0  0  0  0
   -0.6820   62.0520   74.2280 C   0  0  0  0  0  0  0  0  0  0  0  0
   -0.3520   63.3330   74.1170 N   0  0  0  0  0  4  0  0  0  0  0  0
    0.0330   63.9420   72.9490 C   0  0  0  0  0  0  0  0  0  0  0  0
   -0.2850   65.3040   72.8220 C   0  0  0  0  0  0  0  0  0  0  0  0
    0.0380   66.0230   71.6670 C   0  0  0  0  0  0  0  0  0  0  0  0
    0.7020   65.3910   70.6230 C   0  0  0  0  0  0  0  0  0  0  0  0
    1.0670   64.0520   70.7330 C   0  0  0  0  0  0  0  0  0  0  0  0
    0.7550   63.3280   71.8970 C   0  0  0  0  0  0  0  0  0  0  0  0
    1.3070   61.9440   72.0030 C   0  0  0  0  0  0  0  0  0  0  0  0
    0.5860   60.9760   72.5370 N   0  0  0  0  0  4  0  0  0  0  0  0
   -0.7740   61.2010   73.0240 C   0  0  0  0  0  0  0  0  0  0  0  0
    1.0550   59.8050   72.7160 O   0  0  0  0  0  1  0  0  0  0  0  0
    1.0920   66.2700   69.2010 Cl  0  0  0  0  0  0  0  0  0  0  0  0
    2.6840   61.6680   71.5230 C   0  0  0  0  0  0  0  0  0  0  0  0
    2.8690   61.1040   70.2550 C   0  0  0  0  0  0  0  0  0  0  0  0
    4.1580   60.8020   69.8150 C   0  0  0  0  0  0  0  0  0  0  0  0
    5.2560   61.0600   70.6360 C   0  0  0  0  0  0  0  0  0  0  0  0
    5.0690   61.6230   71.8980 C   0  0  0  0  0  0  0  0  0  0  0  0
    3.7830   61.9260   72.3460 C   0  0  0  0  0  0  0  0  0  0  0  0
   -0.9861   61.3372   77.4895 H   0  0  0  0  0  0  0  0  0  0  0  0
   -0.0079   62.6840   76.8142 H   0  0  0  0  0  0  0  0  0  0  0  0
   -1.8012   62.7885   76.8142 H   0  0  0  0  0  0  0  0  0  0  0  0
   -1.2611   60.4862   75.3575 H   0  0  0  0  0  0  0  0  0  0  0  0
   -0.3874   63.9113   74.9686 H   0  0  0  0  0  0  0  0  0  0  0  0
   -0.7991   65.8161   73.6487 H   0  0  0  0  0  0  0  0  0  0  0  0
   -0.2329   67.0860   71.5852 H   0  0  0  0  0  0  0  0  0  0  0  0
    1.6009   63.5593   69.9070 H   0  0  0  0  0  0  0  0  0  0  0  0
   -1.3702   61.7079   72.2510 H   0  0  0  0  0  0  0  0  0  0  0  0
   -1.2620   60.2446   73.2632 H   0  0  0  0  0  0  0  0  0  0  0  0
    2.0024   60.9000   69.6089 H   0  0  0  0  0  0  0  0  0  0  0  0
    4.3088   60.3598   68.8192 H   0  0  0  0  0  0  0  0  0  0  0  0
    6.2710   60.8189   70.2873 H   0  0  0  0  0  0  0  0  0  0  0  0
    5.9371   61.8286   72.5415 H   0  0  0  0  0  0  0  0  0  0  0  0
    3.6350   62.3662   73.3431 H   0  0  0  0  0  0  0  0  0  0  0  0
  2  1  1  0
  3  2  1  0
  4  3  2  0
  5  4  1  0
  6  5  2  0
  7  6  1  0
  8  7  2  0
  9  8  1  0
 10  9  2  0
 10  5  1  0
 11 10  1  0
 12 11  2  0
 13 12  1  0
 13  3  1  0
 14 12  1  0
 15  8  1  0
 16 11  1  0
 17 16  2  0
 18 17  1  0
 19 18  2  0
 20 19  1  0
 21 20  2  0
 21 16  1  0
  1 22  1  0
  1 23  1  0
  1 24  1  0
  2 25  1  0
  4 26  1  0
  6 27  1  0
  7 28  1  0
  9 29  1  0
 13 30  1  0
 13 31  1  0
 17 32  1  0
 18 33  1  0
 19 34  1  0
 20 35  1  0
 21 36  1  0
M  CHG  3   4   1  12   1  14  -1
M  END
>  <score>  (5) 
-7.638

$$$$
=
     RDKit          3D

 36 38  0  0  0  0  0  0  0  0999 V2000
    4.1450   57.6160   75.9460 C   0  0  0  0  0  0  0  0  0  0  0  0
    3.2670   57.7380   74.7790 N   0  0  0  0  0  0  0  0  0  0  0  0
    2.5990   58.8260   74.4050 C   0  0  0  0  0  0  0  0  0  0  0  0
    2.6110   59.9580   75.0970 N   0  0  0  0  0  4  0  0  0  0  0  0
    1.9970   61.1200   74.7030 C   0  0  0  0  0  0  0  0  0  0  0  0
    1.5310   61.9590   75.7290 C   0  0  0  0  0  0  0  0  0  0  0  0
    0.8700   63.1580   75.4470 C   0  0  0  0  0  0  0  0  0  0  0  0
    0.6790   63.5480   74.1260 C   0  0  0  0  0  0  0  0  0  0  0  0
    1.1650   62.7600   73.0860 C   0  0  0  0  0  0  0  0  0  0  0  0
    1.8390   61.5580   73.3650 C   0  0  0  0  0  0  0  0  0  0  0  0
    2.4590   60.8450   72.2090 C   0  0  0  0  0  0  0  0  0  0  0  0
    2.4330   59.5260   72.1450 N   0  0  0  0  0  4  0  0  0  0  0  0
    1.7880   58.7130   73.1750 C   0  0  0  0  0  0  0  0  0  0  0  0
    3.0200   58.8830   71.2160 O   0  0  0  0  0  1  0  0  0  0  0  0
   -0.1390   65.0160   73.7780 Cl  0  0  0  0  0  0  0  0  0  0  0  0
    3.1260   61.6280   71.1390 C   0  0  0  0  0  0  0  0  0  0  0  0
    4.2700   62.3740   71.4460 C   0  0  0  0  0  0  0  0  0  0  0  0
    4.8760   63.1470   70.4550 C   0  0  0  0  0  0  0  0  0  0  0  0
    4.3440   63.1750   69.1660 C   0  0  0  0  0  0  0  0  0  0  0  0
    3.2050   62.4300   68.8620 C   0  0  0  0  0  0  0  0  0  0  0  0
    2.5920   61.6560   69.8480 C   0  0  0  0  0  0  0  0  0  0  0  0
    3.5467   57.6991   76.8653 H   0  0  0  0  0  0  0  0  0  0  0  0
    4.6501   56.6390   75.9243 H   0  0  0  0  0  0  0  0  0  0  0  0
    4.8973   58.4182   75.9243 H   0  0  0  0  0  0  0  0  0  0  0  0
    3.1563   56.8996   74.1910 H   0  0  0  0  0  0  0  0  0  0  0  0
    3.1173   59.9649   75.9939 H   0  0  0  0  0  0  0  0  0  0  0  0
    1.6898   61.6660   76.7773 H   0  0  0  0  0  0  0  0  0  0  0  0
    0.5020   63.7912   76.2677 H   0  0  0  0  0  0  0  0  0  0  0  0
    1.0212   63.0788   72.0431 H   0  0  0  0  0  0  0  0  0  0  0  0
    0.7692   59.0832   73.3619 H   0  0  0  0  0  0  0  0  0  0  0  0
    1.7189   57.6636   72.8524 H   0  0  0  0  0  0  0  0  0  0  0  0
    4.6889   62.3509   72.4629 H   0  0  0  0  0  0  0  0  0  0  0  0
    5.7750   63.7354   70.6908 H   0  0  0  0  0  0  0  0  0  0  0  0
    4.8239   63.7861   68.3874 H   0  0  0  0  0  0  0  0  0  0  0  0
    2.7894   62.4525   67.8438 H   0  0  0  0  0  0  0  0  0  0  0  0
    1.6919   61.0702   69.6099 H   0  0  0  0  0  0  0  0  0  0  0  0
  2  1  1  0
  3  2  1  0
  4  3  2  0
  5  4  1  0
  6  5  2  0
  7  6  1  0
  8  7  2  0
  9  8  1  0
 10  9  2  0
 10  5  1  0
 11 10  1  0
 12 11  2  0
 13 12  1  0
 13  3  1  0
 14 12  1  0
 15  8  1  0
 16 11  1  0
 17 16  2  0
 18 17  1  0
 19 18  2  0
 20 19  1  0
 21 20  2  0
 21 16  1  0
  1 22  1  0
  1 23  1  0
  1 24  1  0
  2 25  1  0
  4 26  1  0
  6 27  1  0
  7 28  1  0
  9 29  1  0
 13 30  1  0
 13 31  1  0
 17 32  1  0
 18 33  1  0
 19 34  1  0
 20 35  1  0
 21 36  1  0
M  CHG  3   4   1  12   1  14  -1
M  END
>  <score>  (6) 
-7.626

$$$$
=
     RDKit          3D

 36 38  0  0  0  0  0  0  0  0999 V2000
    6.4050   71.3190   66.7840 C   0  0  0  0  0  0  0  0  0  0  0  0
    6.1130   70.1320   65.9770 N   0  0  0  0  0  0  0  0  0  0  0  0
    4.9860   69.4260   65.9920 C   0  0  0  0  0  0  0  0  0  0  0  0
    3.9720   69.6950   66.8050 N   0  0  0  0  0  4  0  0  0  0  0  0
    2.7680   69.0370   66.7950 C   0  0  0  0  0  0  0  0  0  0  0  0
    2.0990   68.9420   68.0270 C   0  0  0  0  0  0  0  0  0  0  0  0
    0.8750   68.2760   68.1420 C   0  0  0  0  0  0  0  0  0  0  0  0
    0.2900   67.7060   67.0180 C   0  0  0  0  0  0  0  0  0  0  0  0
    0.9070   67.8180   65.7740 C   0  0  0  0  0  0  0  0  0  0  0  0
    2.1320   68.4960   65.6510 C   0  0  0  0  0  0  0  0  0  0  0  0
    2.6560   68.7020   64.2690 C   0  0  0  0  0  0  0  0  0  0  0  0
    3.9500   68.6050   64.0220 N   0  0  0  0  0  4  0  0  0  0  0  0
    4.9150   68.2740   65.0700 C   0  0  0  0  0  0  0  0  0  0  0  0
    4.4390   68.8530   62.8730 O   0  0  0  0  0  1  0  0  0  0  0  0
   -1.2080   66.8810   67.1590 Cl  0  0  0  0  0  0  0  0  0  0  0  0
    1.7140   69.0410   63.1720 C   0  0  0  0  0  0  0  0  0  0  0  0
    2.1580   68.9890   61.8460 C   0  0  0  0  0  0  0  0  0  0  0  0
    1.2910   69.3490   60.8140 C   0  0  0  0  0  0  0  0  0  0  0  0
   -0.0110   69.7580   61.1040 C   0  0  0  0  0  0  0  0  0  0  0  0
   -0.4500   69.8080   62.4260 C   0  0  0  0  0  0  0  0  0  0  0  0
    0.4120   69.4520   63.4640 C   0  0  0  0  0  0  0  0  0  0  0  0
    6.3416   71.0613   67.8515 H   0  0  0  0  0  0  0  0  0  0  0  0
    7.4185   71.6790   66.5533 H   0  0  0  0  0  0  0  0  0  0  0  0
    5.6742   72.1081   66.5533 H   0  0  0  0  0  0  0  0  0  0  0  0
    6.8527   69.8129   65.3352 H   0  0  0  0  0  0  0  0  0  0  0  0
    4.0979   70.4516   67.4924 H   0  0  0  0  0  0  0  0  0  0  0  0
    2.5478   69.4014   68.9200 H   0  0  0  0  0  0  0  0  0  0  0  0
    0.3765   68.2035   69.1199 H   0  0  0  0  0  0  0  0  0  0  0  0
    0.4341   67.3745   64.8854 H   0  0  0  0  0  0  0  0  0  0  0  0
    4.5843   67.3774   65.6148 H   0  0  0  0  0  0  0  0  0  0  0  0
    5.9033   68.0670   64.6336 H   0  0  0  0  0  0  0  0  0  0  0  0
    3.1847   68.6661   61.6187 H   0  0  0  0  0  0  0  0  0  0  0  0
    1.6345   69.3103   59.7697 H   0  0  0  0  0  0  0  0  0  0  0  0
   -0.6921   70.0414   60.2881 H   0  0  0  0  0  0  0  0  0  0  0  0
   -1.4778   70.1287   62.6514 H   0  0  0  0  0  0  0  0  0  0  0  0
    0.0672   69.4950   64.5077 H   0  0  0  0  0  0  0  0  0  0  0  0
  2  1  1  0
  3  2  1  0
  4  3  2  0
  5  4  1  0
  6  5  2  0
  7  6  1  0
  8  7  2  0
  9  8  1  0
 10  9  2  0
 10  5  1  0
 11 10  1  0
 12 11  2  0
 13 12  1  0
 13  3  1  0
 14 12  1  0
 15  8  1  0
 16 11  1  0
 17 16  2  0
 18 17  1  0
 19 18  2  0
 20 19  1  0
 21 20  2  0
 21 16  1  0
  1 22  1  0
  1 23  1  0
  1 24  1  0
  2 25  1  0
  4 26  1  0
  6 27  1  0
  7 28  1  0
  9 29  1  0
 13 30  1  0
 13 31  1  0
 17 32  1  0
 18 33  1  0
 19 34  1  0
 20 35  1  0
 21 36  1  0
M  CHG  3   4   1  12   1  14  -1
M  END
>  <score>  (7) 
-7.426

$$$$
=
     RDKit          3D

 36 38  0  0  0  0  0  0  0  0999 V2000
    3.4730   57.9490   70.9900 C   0  0  0  0  0  0  0  0  0  0  0  0
    3.4410   58.7690   72.2040 N   0  0  0  0  0  0  0  0  0  0  0  0
    2.9270   59.9910   72.3150 C   0  0  0  0  0  0  0  0  0  0  0  0
    2.4070   60.6560   71.2920 N   0  0  0  0  0  4  0  0  0  0  0  0
    1.8010   61.8840   71.3860 C   0  0  0  0  0  0  0  0  0  0  0  0
    1.9030   62.7170   70.2590 C   0  0  0  0  0  0  0  0  0  0  0  0
    1.3440   63.9990   70.2480 C   0  0  0  0  0  0  0  0  0  0  0  0
    0.6550   64.4620   71.3620 C   0  0  0  0  0  0  0  0  0  0  0  0
    0.5010   63.6460   72.4800 C   0  0  0  0  0  0  0  0  0  0  0  0
    1.0520   62.3530   72.4930 C   0  0  0  0  0  0  0  0  0  0  0  0
    0.7200   61.4860   73.6620 C   0  0  0  0  0  0  0  0  0  0  0  0
    1.6310   60.6820   74.1780 N   0  0  0  0  0  4  0  0  0  0  0  0
    2.9940   60.6160   73.6530 C   0  0  0  0  0  0  0  0  0  0  0  0
    1.3600   59.8720   75.1230 O   0  0  0  0  0  1  0  0  0  0  0  0
   -0.0240   66.0380   71.3520 Cl  0  0  0  0  0  0  0  0  0  0  0  0
   -0.6510   61.5180   74.2290 C   0  0  0  0  0  0  0  0  0  0  0  0
   -1.6860   60.8560   73.5590 C   0  0  0  0  0  0  0  0  0  0  0  0
   -2.9860   60.9180   74.0630 C   0  0  0  0  0  0  0  0  0  0  0  0
   -3.2500   61.6370   75.2290 C   0  0  0  0  0  0  0  0  0  0  0  0
   -2.2160   62.2940   75.8960 C   0  0  0  0  0  0  0  0  0  0  0  0
   -0.9150   62.2380   75.3960 C   0  0  0  0  0  0  0  0  0  0  0  0
    3.5145   56.8853   71.2670 H   0  0  0  0  0  0  0  0  0  0  0  0
    2.5668   58.1381   70.3958 H   0  0  0  0  0  0  0  0  0  0  0  0
    4.3617   58.2081   70.3958 H   0  0  0  0  0  0  0  0  0  0  0  0
    3.8564   58.3599   73.0531 H   0  0  0  0  0  0  0  0  0  0  0  0
    2.4618   60.2198   70.3605 H   0  0  0  0  0  0  0  0  0  0  0  0
    2.4336   62.3532   69.3667 H   0  0  0  0  0  0  0  0  0  0  0  0
    1.4496   64.6390   69.3596 H   0  0  0  0  0  0  0  0  0  0  0  0
   -0.0536   64.0145   73.3556 H   0  0  0  0  0  0  0  0  0  0  0  0
    3.4149   61.6292   73.5732 H   0  0  0  0  0  0  0  0  0  0  0  0
    3.6383   60.0275   74.3228 H   0  0  0  0  0  0  0  0  0  0  0  0
   -1.4760   60.2896   72.6397 H   0  0  0  0  0  0  0  0  0  0  0  0
   -3.8033   60.3994   73.5403 H   0  0  0  0  0  0  0  0  0  0  0  0
   -4.2758   61.6859   75.6232 H   0  0  0  0  0  0  0  0  0  0  0  0
   -2.4268   62.8569   76.8173 H   0  0  0  0  0  0  0  0  0  0  0  0
   -0.0998   62.7592   75.9192 H   0  0  0  0  0  0  0  0  0  0  0  0
  2  1  1  0
  3  2  1  0
  4  3  2  0
  5  4  1  0
  6  5  2  0
  7  6  1  0
  8  7  2  0
  9  8  1  0
 10  9  2  0
 10  5  1  0
 11 10  1  0
 12 11  2  0
 13 12  1  0
 13  3  1  0
 14 12  1  0
 15  8  1  0
 16 11  1  0
 17 16  2  0
 18 17  1  0
 19 18  2  0
 20 19  1  0
 21 20  2  0
 21 16  1  0
  1 22  1  0
  1 23  1  0
  1 24  1  0
  2 25  1  0
  4 26  1  0
  6 27  1  0
  7 28  1  0
  9 29  1  0
 13 30  1  0
 13 31  1  0
 17 32  1  0
 18 33  1  0
 19 34  1  0
 20 35  1  0
 21 36  1  0
M  CHG  3   4   1  12   1  14  -1
M  END
>  <score>  (8) 
-7.184

$$$$
