=
     RDKit          3D

 27 28  0  0  0  0  0  0  0  0999 V2000
    5.5480   70.2580   67.5780 C   0  0  0  0  0  0  0  0  0  0  0  0
    6.5230   70.1040   66.8370 O   0  0  0  0  0  0  0  0  0  0  0  0
    4.2470   69.9010   67.2300 N   0  0  0  0  0  0  0  0  0  0  0  0
    3.8700   69.4710   65.9260 C   0  0  0  0  0  0  0  0  0  0  0  0
    4.6250   69.3940   64.7660 C   0  0  0  0  0  0  0  0  0  0  0  0
    4.0090   68.9420   63.5890 C   0  0  0  0  0  0  0  0  0  0  0  0
    2.6520   68.5750   63.5730 C   0  0  0  0  0  0  0  0  0  0  0  0
    1.8890   68.6550   64.7360 C   0  0  0  0  0  0  0  0  0  0  0  0
    2.5280   69.1040   65.8780 C   0  0  0  0  0  0  0  0  0  0  0  0
    1.9790   69.2850   67.2110 C   0  0  0  0  0  0  0  0  0  0  0  0
    0.8420   69.0760   67.5640 O   0  0  0  0  0  0  0  0  0  0  0  0
    3.1390   69.7960   68.0820 C   0  0  0  0  0  0  0  0  0  0  0  0
    3.0190   70.0340   69.2670 O   0  0  0  0  0  0  0  0  0  0  0  0
    5.7740   70.8680   68.9530 C   0  0  0  0  0  0  0  0  0  0  0  0
    7.4680   70.4540   70.7920 C   0  0  0  0  0  0  0  0  0  0  0  0
    7.2470   70.9010   69.3540 C   0  0  0  0  0  0  0  0  0  0  0  0
    5.6867   69.6817   64.7681 H   0  0  0  0  0  0  0  0  0  0  0  0
    4.5982   68.8736   62.6626 H   0  0  0  0  0  0  0  0  0  0  0  0
    2.1907   68.2232   62.6384 H   0  0  0  0  0  0  0  0  0  0  0  0
    0.8256   68.3736   64.7458 H   0  0  0  0  0  0  0  0  0  0  0  0
    5.3886   71.8983   68.9475 H   0  0  0  0  0  0  0  0  0  0  0  0
    5.2470   70.2375   69.6843 H   0  0  0  0  0  0  0  0  0  0  0  0
    7.0870   71.2247   71.4782 H   0  0  0  0  0  0  0  0  0  0  0  0
    6.9333   69.5091   70.9685 H   0  0  0  0  0  0  0  0  0  0  0  0
    8.5435   70.3052   70.9685 H   0  0  0  0  0  0  0  0  0  0  0  0
    7.6203   71.9297   69.2427 H   0  0  0  0  0  0  0  0  0  0  0  0
    7.7882   70.2023   68.6991 H   0  0  0  0  0  0  0  0  0  0  0  0
  2  1  2  0
  3  1  1  0
  4  3  1  0
  5  4  2  0
  6  5  1  0
  7  6  2  0
  8  7  1  0
  9  8  2  0
  9  4  1  0
 10  9  1  0
 11 10  2  0
 12 10  1  0
 12  3  1  0
 13 12  2  0
 14  1  1  0
 16 15  1  0
 16 14  1  0
  5 17  1  0
  6 18  1  0
  7 19  1  0
  8 20  1  0
 14 21  1  0
 14 22  1  0
 15 23  1  0
 15 24  1  0
 15 25  1  0
 16 26  1  0
 16 27  1  0
M  END
>  <score>  (1) 
-9.038

$$$$
=
     RDKit          3D

 27 28  0  0  0  0  0  0  0  0999 V2000
    4.4990   69.1790   64.0140 C   0  0  0  0  0  0  0  0  0  0  0  0
    5.5790   69.6510   63.6480 O   0  0  0  0  0  0  0  0  0  0  0  0
    4.0000   69.3010   65.3090 N   0  0  0  0  0  0  0  0  0  0  0  0
    4.7480   69.8390   66.3940 C   0  0  0  0  0  0  0  0  0  0  0  0
    6.0690   70.2560   66.4390 C   0  0  0  0  0  0  0  0  0  0  0  0
    6.5810   70.7440   67.6510 C   0  0  0  0  0  0  0  0  0  0  0  0
    5.7810   70.8110   68.8040 C   0  0  0  0  0  0  0  0  0  0  0  0
    4.4540   70.3890   68.7640 C   0  0  0  0  0  0  0  0  0  0  0  0
    3.9810   69.9140   67.5540 C   0  0  0  0  0  0  0  0  0  0  0  0
    2.6550   69.4130   67.2330 C   0  0  0  0  0  0  0  0  0  0  0  0
    1.7130   69.3170   67.9850 O   0  0  0  0  0  0  0  0  0  0  0  0
    2.6950   69.0310   65.7440 C   0  0  0  0  0  0  0  0  0  0  0  0
    1.7310   68.5910   65.1500 O   0  0  0  0  0  0  0  0  0  0  0  0
    3.6590   68.4240   62.9960 C   0  0  0  0  0  0  0  0  0  0  0  0
    4.2720   65.9990   63.4050 C   0  0  0  0  0  0  0  0  0  0  0  0
    4.3600   67.1820   62.4500 C   0  0  0  0  0  0  0  0  0  0  0  0
    6.7038   70.2054   65.5421 H   0  0  0  0  0  0  0  0  0  0  0  0
    7.6273   71.0800   67.6992 H   0  0  0  0  0  0  0  0  0  0  0  0
    6.2044   71.1984   69.7425 H   0  0  0  0  0  0  0  0  0  0  0  0
    3.8107   70.4316   69.6553 H   0  0  0  0  0  0  0  0  0  0  0  0
    2.7197   68.1137   63.4771 H   0  0  0  0  0  0  0  0  0  0  0  0
    3.4807   69.1016   62.1480 H   0  0  0  0  0  0  0  0  0  0  0  0
    4.2991   66.3627   64.4428 H   0  0  0  0  0  0  0  0  0  0  0  0
    3.3310   65.4565   63.2310 H   0  0  0  0  0  0  0  0  0  0  0  0
    5.1224   65.3233   63.2310 H   0  0  0  0  0  0  0  0  0  0  0  0
    5.4202   67.4207   62.2800 H   0  0  0  0  0  0  0  0  0  0  0  0
    3.8563   66.8964   61.5147 H   0  0  0  0  0  0  0  0  0  0  0  0
  2  1  2  0
  3  1  1  0
  4  3  1  0
  5  4  2  0
  6  5  1  0
  7  6  2  0
  8  7  1  0
  9  8  2  0
  9  4  1  0
 10  9  1  0
 11 10  2  0
 12 10  1  0
 12  3  1  0
 13 12  2  0
 14  1  1  0
 16 15  1  0
 16 14  1  0
  5 17  1  0
  6 18  1  0
  7 19  1  0
  8 20  1  0
 14 21  1  0
 14 22  1  0
 15 23  1  0
 15 24  1  0
 15 25  1  0
 16 26  1  0
 16 27  1  0
M  END
>  <score>  (2) 
-8.832

$$$$
=
     RDKit          3D

 27 28  0  0  0  0  0  0  0  0999 V2000
    4.6280   70.0780   67.6300 C   0  0  0  0  0  0  0  0  0  0  0  0
    4.0990   70.3600   68.7080 O   0  0  0  0  0  0  0  0  0  0  0  0
    3.9280   69.5830   66.5310 N   0  0  0  0  0  0  0  0  0  0  0  0
    2.5600   69.1940   66.5780 C   0  0  0  0  0  0  0  0  0  0  0  0
    1.6910   69.1380   67.6580 C   0  0  0  0  0  0  0  0  0  0  0  0
    0.3740   68.7040   67.4410 C   0  0  0  0  0  0  0  0  0  0  0  0
   -0.0660   68.3270   66.1620 C   0  0  0  0  0  0  0  0  0  0  0  0
    0.8040   68.3790   65.0760 C   0  0  0  0  0  0  0  0  0  0  0  0
    2.0940   68.8110   65.3230 C   0  0  0  0  0  0  0  0  0  0  0  0
    3.1960   68.9580   64.3870 C   0  0  0  0  0  0  0  0  0  0  0  0
    3.1810   68.7160   63.2020 O   0  0  0  0  0  0  0  0  0  0  0  0
    4.3850   69.4810   65.2090 C   0  0  0  0  0  0  0  0  0  0  0  0
    5.4680   69.7290   64.7190 O   0  0  0  0  0  0  0  0  0  0  0  0
    6.1280   70.2830   67.4840 C   0  0  0  0  0  0  0  0  0  0  0  0
    7.5330   70.8990   69.5010 C   0  0  0  0  0  0  0  0  0  0  0  0
    6.6620   71.4120   68.3630 C   0  0  0  0  0  0  0  0  0  0  0  0
    2.0275   69.4280   68.6643 H   0  0  0  0  0  0  0  0  0  0  0  0
   -0.3261   68.6584   68.2882 H   0  0  0  0  0  0  0  0  0  0  0  0
   -1.1027   67.9890   66.0173 H   0  0  0  0  0  0  0  0  0  0  0  0
    0.4792   68.0891   64.0658 H   0  0  0  0  0  0  0  0  0  0  0  0
    6.6386   69.3495   67.7630 H   0  0  0  0  0  0  0  0  0  0  0  0
    6.3230   70.5593   66.4373 H   0  0  0  0  0  0  0  0  0  0  0  0
    7.0747   71.1689   70.4639 H   0  0  0  0  0  0  0  0  0  0  0  0
    7.6211   69.8048   69.4308 H   0  0  0  0  0  0  0  0  0  0  0  0
    8.5327   71.3526   69.4308 H   0  0  0  0  0  0  0  0  0  0  0  0
    5.8095   71.9604   68.7902 H   0  0  0  0  0  0  0  0  0  0  0  0
    7.2844   72.0629   67.7315 H   0  0  0  0  0  0  0  0  0  0  0  0
  2  1  2  0
  3  1  1  0
  4  3  1  0
  5  4  2  0
  6  5  1  0
  7  6  2  0
  8  7  1  0
  9  8  2  0
  9  4  1  0
 10  9  1  0
 11 10  2  0
 12 10  1  0
 12  3  1  0
 13 12  2  0
 14  1  1  0
 16 15  1  0
 16 14  1  0
  5 17  1  0
  6 18  1  0
  7 19  1  0
  8 20  1  0
 14 21  1  0
 14 22  1  0
 15 23  1  0
 15 24  1  0
 15 25  1  0
 16 26  1  0
 16 27  1  0
M  END
>  <score>  (3) 
-8.732

$$$$
=
     RDKit          3D

 27 28  0  0  0  0  0  0  0  0999 V2000
    1.7710   68.9270   67.1350 C   0  0  0  0  0  0  0  0  0  0  0  0
    1.5800   68.9500   68.3540 O   0  0  0  0  0  0  0  0  0  0  0  0
    2.9790   69.2750   66.5340 N   0  0  0  0  0  0  0  0  0  0  0  0
    4.0740   69.8490   67.2400 C   0  0  0  0  0  0  0  0  0  0  0  0
    4.1630   70.2450   68.5660 C   0  0  0  0  0  0  0  0  0  0  0  0
    5.3680   70.8010   69.0230 C   0  0  0  0  0  0  0  0  0  0  0  0
    6.4680   70.9610   68.1630 C   0  0  0  0  0  0  0  0  0  0  0  0
    6.3810   70.5680   66.8300 C   0  0  0  0  0  0  0  0  0  0  0  0
    5.1800   70.0230   66.4120 C   0  0  0  0  0  0  0  0  0  0  0  0
    4.8160   69.5370   65.0920 C   0  0  0  0  0  0  0  0  0  0  0  0
    5.5120   69.5280   64.1030 O   0  0  0  0  0  0  0  0  0  0  0  0
    3.3660   69.0370   65.2070 C   0  0  0  0  0  0  0  0  0  0  0  0
    2.7610   68.5470   64.2760 O   0  0  0  0  0  0  0  0  0  0  0  0
    0.6270   68.4930   66.2320 C   0  0  0  0  0  0  0  0  0  0  0  0
   -1.2600   67.1640   67.2800 C   0  0  0  0  0  0  0  0  0  0  0  0
   -0.7330   68.5470   66.9260 C   0  0  0  0  0  0  0  0  0  0  0  0
    3.3066   70.1258   69.2459 H   0  0  0  0  0  0  0  0  0  0  0  0
    5.4530   71.1172   70.0731 H   0  0  0  0  0  0  0  0  0  0  0  0
    7.4021   71.3988   68.5448 H   0  0  0  0  0  0  0  0  0  0  0  0
    7.2295   70.6856   66.1399 H   0  0  0  0  0  0  0  0  0  0  0  0
    0.6003   69.1574   65.3558 H   0  0  0  0  0  0  0  0  0  0  0  0
    0.8105   67.4464   65.9474 H   0  0  0  0  0  0  0  0  0  0  0  0
   -1.3011   67.0562   68.3739 H   0  0  0  0  0  0  0  0  0  0  0  0
   -2.2692   67.0379   66.8610 H   0  0  0  0  0  0  0  0  0  0  0  0
   -0.5907   66.3982   66.8610 H   0  0  0  0  0  0  0  0  0  0  0  0
   -1.4528   69.0379   66.2545 H   0  0  0  0  0  0  0  0  0  0  0  0
   -0.6084   69.1082   67.8638 H   0  0  0  0  0  0  0  0  0  0  0  0
  2  1  2  0
  3  1  1  0
  4  3  1  0
  5  4  2  0
  6  5  1  0
  7  6  2  0
  8  7  1  0
  9  8  2  0
  9  4  1  0
 10  9  1  0
 11 10  2  0
 12 10  1  0
 12  3  1  0
 13 12  2  0
 14  1  1  0
 16 15  1  0
 16 14  1  0
  5 17  1  0
  6 18  1  0
  7 19  1  0
  8 20  1  0
 14 21  1  0
 14 22  1  0
 15 23  1  0
 15 24  1  0
 15 25  1  0
 16 26  1  0
 16 27  1  0
M  END
>  <score>  (4) 
-8.692

$$$$
=
     RDKit          3D

 27 28  0  0  0  0  0  0  0  0999 V2000
    1.3940   68.5280   64.7130 C   0  0  0  0  0  0  0  0  0  0  0  0
    0.8030   68.4060   65.7900 O   0  0  0  0  0  0  0  0  0  0  0  0
    2.7300   68.9080   64.6020 N   0  0  0  0  0  0  0  0  0  0  0  0
    3.5170   69.3530   65.7020 C   0  0  0  0  0  0  0  0  0  0  0  0
    3.1500   69.5790   67.0200 C   0  0  0  0  0  0  0  0  0  0  0  0
    4.1240   70.0350   67.9220 C   0  0  0  0  0  0  0  0  0  0  0  0
    5.4470   70.2640   67.5090 C   0  0  0  0  0  0  0  0  0  0  0  0
    5.8190   70.0410   66.1860 C   0  0  0  0  0  0  0  0  0  0  0  0
    4.8350   69.5920   65.3230 C   0  0  0  0  0  0  0  0  0  0  0  0
    4.9430   69.2850   63.9070 C   0  0  0  0  0  0  0  0  0  0  0  0
    5.9320   69.3750   63.2170 O   0  0  0  0  0  0  0  0  0  0  0  0
    3.5450   68.8230   63.4640 C   0  0  0  0  0  0  0  0  0  0  0  0
    3.2950   68.4720   62.3290 O   0  0  0  0  0  0  0  0  0  0  0  0
    0.6260   68.2470   63.4310 C   0  0  0  0  0  0  0  0  0  0  0  0
    0.1400   69.7290   61.4330 C   0  0  0  0  0  0  0  0  0  0  0  0
   -0.1280   69.4680   62.9090 C   0  0  0  0  0  0  0  0  0  0  0  0
    2.1160   69.4044   67.3521 H   0  0  0  0  0  0  0  0  0  0  0  0
    3.8464   70.2162   68.9709 H   0  0  0  0  0  0  0  0  0  0  0  0
    6.1927   70.6213   68.2344 H   0  0  0  0  0  0  0  0  0  0  0  0
    6.8494   70.2141   65.8421 H   0  0  0  0  0  0  0  0  0  0  0  0
    1.3386   67.9187   62.6600 H   0  0  0  0  0  0  0  0  0  0  0  0
   -0.1199   67.4707   63.6570 H   0  0  0  0  0  0  0  0  0  0  0  0
    0.9247   70.4932   61.3324 H   0  0  0  0  0  0  0  0  0  0  0  0
    0.4711   68.7977   60.9502 H   0  0  0  0  0  0  0  0  0  0  0  0
   -0.7822   70.0846   60.9502 H   0  0  0  0  0  0  0  0  0  0  0  0
    0.1857   70.3502   63.4863 H   0  0  0  0  0  0  0  0  0  0  0  0
   -1.2042   69.2721   63.0247 H   0  0  0  0  0  0  0  0  0  0  0  0
  2  1  2  0
  3  1  1  0
  4  3  1  0
  5  4  2  0
  6  5  1  0
  7  6  2  0
  8  7  1  0
  9  8  2  0
  9  4  1  0
 10  9  1  0
 11 10  2  0
 12 10  1  0
 12  3  1  0
 13 12  2  0
 14  1  1  0
 16 15  1  0
 16 14  1  0
  5 17  1  0
  6 18  1  0
  7 19  1  0
  8 20  1  0
 14 21  1  0
 14 22  1  0
 15 23  1  0
 15 24  1  0
 15 25  1  0
 16 26  1  0
 16 27  1  0
M  END
>  <score>  (5) 
-8.589

$$$$
=
     RDKit          3D

 27 28  0  0  0  0  0  0  0  0999 V2000
    0.9840   68.6930   66.6620 C   0  0  0  0  0  0  0  0  0  0  0  0
    1.5390   68.7830   67.7600 O   0  0  0  0  0  0  0  0  0  0  0  0
    1.6610   68.7460   65.4450 N   0  0  0  0  0  0  0  0  0  0  0  0
    3.0420   69.0720   65.3250 C   0  0  0  0  0  0  0  0  0  0  0  0
    3.9470   69.4660   66.2990 C   0  0  0  0  0  0  0  0  0  0  0  0
    5.2680   69.7450   65.9170 C   0  0  0  0  0  0  0  0  0  0  0  0
    5.6770   69.6350   64.5770 C   0  0  0  0  0  0  0  0  0  0  0  0
    4.7700   69.2430   63.5960 C   0  0  0  0  0  0  0  0  0  0  0  0
    3.4760   68.9750   64.0060 C   0  0  0  0  0  0  0  0  0  0  0  0
    2.3400   68.5550   63.2030 C   0  0  0  0  0  0  0  0  0  0  0  0
    2.3230   68.3680   62.0090 O   0  0  0  0  0  0  0  0  0  0  0  0
    1.1630   68.3980   64.1810 C   0  0  0  0  0  0  0  0  0  0  0  0
    0.0580   68.0380   63.8310 O   0  0  0  0  0  0  0  0  0  0  0  0
   -0.5260   68.5090   66.6280 C   0  0  0  0  0  0  0  0  0  0  0  0
   -2.4600   67.1440   67.5330 C   0  0  0  0  0  0  0  0  0  0  0  0
   -0.9740   67.1670   67.2030 C   0  0  0  0  0  0  0  0  0  0  0  0
    3.6355   69.5580   67.3500 H   0  0  0  0  0  0  0  0  0  0  0  0
    5.9967   70.0555   66.6803 H   0  0  0  0  0  0  0  0  0  0  0  0
    6.7181   69.8595   64.3020 H   0  0  0  0  0  0  0  0  0  0  0  0
    5.0690   69.1505   62.5415 H   0  0  0  0  0  0  0  0  0  0  0  0
   -0.9911   69.3150   67.2145 H   0  0  0  0  0  0  0  0  0  0  0  0
   -0.8384   68.5373   65.5737 H   0  0  0  0  0  0  0  0  0  0  0  0
   -2.5931   67.1419   68.6249 H   0  0  0  0  0  0  0  0  0  0  0  0
   -2.9442   68.0348   67.1063 H   0  0  0  0  0  0  0  0  0  0  0  0
   -2.9164   66.2387   67.1063 H   0  0  0  0  0  0  0  0  0  0  0  0
   -0.4047   66.9692   68.1232 H   0  0  0  0  0  0  0  0  0  0  0  0
   -0.7878   66.3964   66.4404 H   0  0  0  0  0  0  0  0  0  0  0  0
  2  1  2  0
  3  1  1  0
  4  3  1  0
  5  4  2  0
  6  5  1  0
  7  6  2  0
  8  7  1  0
  9  8  2  0
  9  4  1  0
 10  9  1  0
 11 10  2  0
 12 10  1  0
 12  3  1  0
 13 12  2  0
 14  1  1  0
 16 15  1  0
 16 14  1  0
  5 17  1  0
  6 18  1  0
  7 19  1  0
  8 20  1  0
 14 21  1  0
 14 22  1  0
 15 23  1  0
 15 24  1  0
 15 25  1  0
 16 26  1  0
 16 27  1  0
M  END
>  <score>  (6) 
-8.535

$$$$
=
     RDKit          3D

 27 28  0  0  0  0  0  0  0  0999 V2000
    3.9430   69.5600   66.8560 C   0  0  0  0  0  0  0  0  0  0  0  0
    5.1690   69.6510   66.7530 O   0  0  0  0  0  0  0  0  0  0  0  0
    3.1010   69.2100   65.8030 N   0  0  0  0  0  0  0  0  0  0  0  0
    3.5390   69.0770   64.4550 C   0  0  0  0  0  0  0  0  0  0  0  0
    4.7840   69.3280   63.8990 C   0  0  0  0  0  0  0  0  0  0  0  0
    4.9600   69.1280   62.5210 C   0  0  0  0  0  0  0  0  0  0  0  0
    3.9010   68.6860   61.7100 C   0  0  0  0  0  0  0  0  0  0  0  0
    2.6480   68.4370   62.2630 C   0  0  0  0  0  0  0  0  0  0  0  0
    2.5090   68.6430   63.6240 C   0  0  0  0  0  0  0  0  0  0  0  0
    1.3280   68.4660   64.4520 C   0  0  0  0  0  0  0  0  0  0  0  0
    0.2330   68.1050   64.0880 O   0  0  0  0  0  0  0  0  0  0  0  0
    1.7530   68.8320   65.8830 C   0  0  0  0  0  0  0  0  0  0  0  0
    0.9970   68.7740   66.8320 O   0  0  0  0  0  0  0  0  0  0  0  0
    3.3090   69.8400   68.2100 C   0  0  0  0  0  0  0  0  0  0  0  0
    5.1380   70.5970   69.7940 C   0  0  0  0  0  0  0  0  0  0  0  0
    3.9530   71.0200   68.9360 C   0  0  0  0  0  0  0  0  0  0  0  0
    5.6178   69.6772   64.5258 H   0  0  0  0  0  0  0  0  0  0  0  0
    5.9438   69.3205   62.0681 H   0  0  0  0  0  0  0  0  0  0  0  0
    4.0630   68.5360   60.6324 H   0  0  0  0  0  0  0  0  0  0  0  0
    1.8058   68.0918   61.6453 H   0  0  0  0  0  0  0  0  0  0  0  0
    2.2421   70.0609   68.0589 H   0  0  0  0  0  0  0  0  0  0  0  0
    3.4579   68.9471   68.8350 H   0  0  0  0  0  0  0  0  0  0  0  0
    4.8730   70.6916   70.8574 H   0  0  0  0  0  0  0  0  0  0  0  0
    5.3965   69.5511   69.5722 H   0  0  0  0  0  0  0  0  0  0  0  0
    6.0004   71.2428   69.5722 H   0  0  0  0  0  0  0  0  0  0  0  0
    3.1985   71.4910   69.5832 H   0  0  0  0  0  0  0  0  0  0  0  0
    4.3241   71.7208   68.1736 H   0  0  0  0  0  0  0  0  0  0  0  0
  2  1  2  0
  3  1  1  0
  4  3  1  0
  5  4  2  0
  6  5  1  0
  7  6  2  0
  8  7  1  0
  9  8  2  0
  9  4  1  0
 10  9  1  0
 11 10  2  0
 12 10  1  0
 12  3  1  0
 13 12  2  0
 14  1  1  0
 16 15  1  0
 16 14  1  0
  5 17  1  0
  6 18  1  0
  7 19  1  0
  8 20  1  0
 14 21  1  0
 14 22  1  0
 15 23  1  0
 15 24  1  0
 15 25  1  0
 16 26  1  0
 16 27  1  0
M  END
>  <score>  (7) 
-8.036

$$$$
=
     RDKit          3D

 27 28  0  0  0  0  0  0  0  0999 V2000
    3.6230   69.1310   64.4270 C   0  0  0  0  0  0  0  0  0  0  0  0
    4.2250   69.3980   65.4700 O   0  0  0  0  0  0  0  0  0  0  0  0
    2.2480   68.9120   64.3610 N   0  0  0  0  0  0  0  0  0  0  0  0
    1.4100   68.8130   65.5070 C   0  0  0  0  0  0  0  0  0  0  0  0
    1.7450   68.8220   66.8530 C   0  0  0  0  0  0  0  0  0  0  0  0
    0.7200   68.6950   67.8030 C   0  0  0  0  0  0  0  0  0  0  0  0
   -0.6230   68.5580   67.4110 C   0  0  0  0  0  0  0  0  0  0  0  0
   -0.9620   68.5450   66.0600 C   0  0  0  0  0  0  0  0  0  0  0  0
    0.0720   68.6720   65.1500 C   0  0  0  0  0  0  0  0  0  0  0  0
    0.0050   68.6880   63.6990 C   0  0  0  0  0  0  0  0  0  0  0  0
   -0.9880   68.5840   63.0160 O   0  0  0  0  0  0  0  0  0  0  0  0
    1.4520   68.8620   63.2080 C   0  0  0  0  0  0  0  0  0  0  0  0
    1.7460   68.9320   62.0320 O   0  0  0  0  0  0  0  0  0  0  0  0
    4.4210   69.0360   63.1350 C   0  0  0  0  0  0  0  0  0  0  0  0
    4.4010   66.5630   62.5800 C   0  0  0  0  0  0  0  0  0  0  0  0
    5.2390   67.7500   63.0350 C   0  0  0  0  0  0  0  0  0  0  0  0
    2.7933   68.9266   67.1695 H   0  0  0  0  0  0  0  0  0  0  0  0
    0.9720   68.7028   68.8737 H   0  0  0  0  0  0  0  0  0  0  0  0
   -1.4093   68.4607   68.1741 H   0  0  0  0  0  0  0  0  0  0  0  0
   -2.0063   68.4384   65.7312 H   0  0  0  0  0  0  0  0  0  0  0  0
    3.7216   69.0740   62.2868 H   0  0  0  0  0  0  0  0  0  0  0  0
    5.1277   69.8788   63.1207 H   0  0  0  0  0  0  0  0  0  0  0  0
    4.0205   66.0240   63.4601 H   0  0  0  0  0  0  0  0  0  0  0  0
    3.5548   66.9217   61.9756 H   0  0  0  0  0  0  0  0  0  0  0  0
    5.0223   65.8857   61.9756 H   0  0  0  0  0  0  0  0  0  0  0  0
    5.6641   67.5239   64.0240 H   0  0  0  0  0  0  0  0  0  0  0  0
    6.0272   67.9113   62.2848 H   0  0  0  0  0  0  0  0  0  0  0  0
  2  1  2  0
  3  1  1  0
  4  3  1  0
  5  4  2  0
  6  5  1  0
  7  6  2  0
  8  7  1  0
  9  8  2  0
  9  4  1  0
 10  9  1  0
 11 10  2  0
 12 10  1  0
 12  3  1  0
 13 12  2  0
 14  1  1  0
 16 15  1  0
 16 14  1  0
  5 17  1  0
  6 18  1  0
  7 19  1  0
  8 20  1  0
 14 21  1  0
 14 22  1  0
 15 23  1  0
 15 24  1  0
 15 25  1  0
 16 26  1  0
 16 27  1  0
M  END
>  <score>  (8) 
-7.533

$$$$
=
     RDKit          3D

 27 28  0  0  0  0  0  0  0  0999 V2000
    1.5850   63.3520   71.2010 C   0  0  0  0  0  0  0  0  0  0  0  0
    0.6380   63.3360   71.9920 O   0  0  0  0  0  0  0  0  0  0  0  0
    2.3330   62.2260   70.8650 N   0  0  0  0  0  0  0  0  0  0  0  0
    2.1960   60.9670   71.5160 C   0  0  0  0  0  0  0  0  0  0  0  0
    1.4140   60.6120   72.6040 C   0  0  0  0  0  0  0  0  0  0  0  0
    1.4660   59.2890   73.0690 C   0  0  0  0  0  0  0  0  0  0  0  0
    2.2930   58.3340   72.4540 C   0  0  0  0  0  0  0  0  0  0  0  0
    3.0840   58.6870   71.3630 C   0  0  0  0  0  0  0  0  0  0  0  0
    3.0080   59.9990   70.9300 C   0  0  0  0  0  0  0  0  0  0  0  0
    3.7160   60.6330   69.8300 C   0  0  0  0  0  0  0  0  0  0  0  0
    4.5170   60.1150   69.0870 O   0  0  0  0  0  0  0  0  0  0  0  0
    3.2390   62.0940   69.8030 C   0  0  0  0  0  0  0  0  0  0  0  0
    3.6290   62.9010   68.9840 O   0  0  0  0  0  0  0  0  0  0  0  0
    1.9590   64.6750   70.5490 C   0  0  0  0  0  0  0  0  0  0  0  0
    1.1180   66.8480   69.5520 C   0  0  0  0  0  0  0  0  0  0  0  0
    0.7590   65.5950   70.3380 C   0  0  0  0  0  0  0  0  0  0  0  0
    0.7651   61.3531   73.0935 H   0  0  0  0  0  0  0  0  0  0  0  0
    0.8484   58.9944   73.9302 H   0  0  0  0  0  0  0  0  0  0  0  0
    2.3160   57.3027   72.8358 H   0  0  0  0  0  0  0  0  0  0  0  0
    3.7396   57.9555   70.8679 H   0  0  0  0  0  0  0  0  0  0  0  0
    2.6869   65.1901   71.1931 H   0  0  0  0  0  0  0  0  0  0  0  0
    2.3778   64.4471   69.5577 H   0  0  0  0  0  0  0  0  0  0  0  0
    1.3520   67.6647   70.2508 H   0  0  0  0  0  0  0  0  0  0  0  0
    1.9941   66.6451   68.9186 H   0  0  0  0  0  0  0  0  0  0  0  0
    0.2673   67.1398   68.9186 H   0  0  0  0  0  0  0  0  0  0  0  0
    0.3671   65.8951   71.3210 H   0  0  0  0  0  0  0  0  0  0  0  0
    0.0087   65.0387   69.7569 H   0  0  0  0  0  0  0  0  0  0  0  0
  2  1  2  0
  3  1  1  0
  4  3  1  0
  5  4  2  0
  6  5  1  0
  7  6  2  0
  8  7  1  0
  9  8  2  0
  9  4  1  0
 10  9  1  0
 11 10  2  0
 12 10  1  0
 12  3  1  0
 13 12  2  0
 14  1  1  0
 16 15  1  0
 16 14  1  0
  5 17  1  0
  6 18  1  0
  7 19  1  0
  8 20  1  0
 14 21  1  0
 14 22  1  0
 15 23  1  0
 15 24  1  0
 15 25  1  0
 16 26  1  0
 16 27  1  0
M  END
>  <score>  (9) 
-7.06

$$$$
