=
     RDKit          3D

 43 43  0  0  0  0  0  0  0  0999 V2000
    4.5810   69.5050   63.6980 N   0  0  0  0  0  0  0  0  0  0  0  0
    5.2540   68.9960   64.7880 C   0  0  0  0  0  0  0  0  0  0  0  0
    6.1260   68.1430   64.6360 O   0  0  0  0  0  0  0  0  0  0  0  0
    4.9090   69.5190   66.1490 C   0  0  0  0  0  0  0  0  0  0  0  0
    5.9770   70.0610   66.8840 C   0  0  0  0  0  0  0  0  0  0  0  0
    5.7660   70.5840   68.1600 C   0  0  0  0  0  0  0  0  0  0  0  0
    7.1160   71.2580   69.0040 Cl  0  0  0  0  0  0  0  0  0  0  0  0
    4.4970   70.5430   68.7520 C   0  0  0  0  0  0  0  0  0  0  0  0
    3.4270   70.0410   67.9980 C   0  0  0  0  0  0  0  0  0  0  0  0
    3.6160   69.5080   66.7120 C   0  0  0  0  0  0  0  0  0  0  0  0
    4.2290   71.1820   69.9750 N   0  0  0  0  0  0  0  0  0  0  0  0
    2.5970   68.9780   65.9570 O   0  0  0  0  0  0  0  0  0  0  0  0
    1.3720   68.6670   66.6190 C   0  0  0  0  0  0  0  0  0  0  0  0
    4.7470   68.9190   62.3850 C   0  0  0  0  0  0  0  0  0  0  0  0
    3.5890   67.9760   61.9950 C   0  0  0  0  0  0  0  0  0  0  0  0
    2.3760   68.0670   62.9220 N   0  0  0  0  0  4  0  0  0  0  0  0
    0.0700   69.0330   63.1720 C   0  0  0  0  0  0  0  0  0  0  0  0
    1.2070   68.7410   62.2060 C   0  0  0  0  0  0  0  0  0  0  0  0
    2.0000   66.7760   63.6160 C   0  0  0  0  0  0  0  0  0  0  0  0
    3.2280   66.0580   64.1460 C   0  0  0  0  0  0  0  0  0  0  0  0
    3.9525   70.3120   63.8193 H   0  0  0  0  0  0  0  0  0  0  0  0
    6.9876   70.0730   66.4497 H   0  0  0  0  0  0  0  0  0  0  0  0
    2.4133   70.0651   68.4243 H   0  0  0  0  0  0  0  0  0  0  0  0
    3.2855   71.1339   70.3853 H   0  0  0  0  0  0  0  0  0  0  0  0
    4.9762   71.6983   70.4609 H   0  0  0  0  0  0  0  0  0  0  0  0
    1.5236   68.7055   67.7078 H   0  0  0  0  0  0  0  0  0  0  0  0
    0.6030   69.3984   66.3298 H   0  0  0  0  0  0  0  0  0  0  0  0
    1.0450   67.6573   66.3298 H   0  0  0  0  0  0  0  0  0  0  0  0
    4.8036   69.7298   61.6438 H   0  0  0  0  0  0  0  0  0  0  0  0
    5.6679   68.3178   62.4069 H   0  0  0  0  0  0  0  0  0  0  0  0
    3.2649   68.2292   60.9748 H   0  0  0  0  0  0  0  0  0  0  0  0
    3.9740   66.9486   62.0733 H   0  0  0  0  0  0  0  0  0  0  0  0
    2.6577   68.6690   63.7088 H   0  0  0  0  0  0  0  0  0  0  0  0
    0.4340   68.9395   64.2058 H   0  0  0  0  0  0  0  0  0  0  0  0
   -0.3000   70.0553   63.0046 H   0  0  0  0  0  0  0  0  0  0  0  0
   -0.7468   68.3155   63.0046 H   0  0  0  0  0  0  0  0  0  0  0  0
    0.8408   68.0754   61.4104 H   0  0  0  0  0  0  0  0  0  0  0  0
    1.5586   69.6929   61.7815 H   0  0  0  0  0  0  0  0  0  0  0  0
    1.3272   67.0033   64.4560 H   0  0  0  0  0  0  0  0  0  0  0  0
    1.5024   66.1209   62.8858 H   0  0  0  0  0  0  0  0  0  0  0  0
    3.2120   66.0673   65.2458 H   0  0  0  0  0  0  0  0  0  0  0  0
    3.2276   65.0179   63.7881 H   0  0  0  0  0  0  0  0  0  0  0  0
    4.1342   66.5685   63.7881 H   0  0  0  0  0  0  0  0  0  0  0  0
  2  1  1  0
  3  2  2  0
  4  2  1  0
  5  4  2  0
  6  5  1  0
  7  6  1  0
  8  6  2  0
  9  8  1  0
 10  9  2  0
 10  4  1  0
 11  8  1  0
 12 10  1  0
 13 12  1  0
 14  1  1  0
 15 14  1  0
 16 15  1  0
 18 17  1  0
 18 16  1  0
 19 16  1  0
 20 19  1  0
  1 21  1  0
  5 22  1  0
  9 23  1  0
 11 24  1  0
 11 25  1  0
 13 26  1  0
 13 27  1  0
 13 28  1  0
 14 29  1  0
 14 30  1  0
 15 31  1  0
 15 32  1  0
 16 33  1  0
 17 34  1  0
 17 35  1  0
 17 36  1  0
 18 37  1  0
 18 38  1  0
 19 39  1  0
 19 40  1  0
 20 41  1  0
 20 42  1  0
 20 43  1  0
M  CHG  1  16   1
M  END
>  <score>  (1) 
-7.186

$$$$
=
     RDKit          3D

 43 43  0  0  0  0  0  0  0  0999 V2000
    1.1310   67.2690   68.0180 N   0  0  0  0  0  0  0  0  0  0  0  0
    1.0500   68.4300   67.2800 C   0  0  0  0  0  0  0  0  0  0  0  0
    0.0930   69.1890   67.4200 O   0  0  0  0  0  0  0  0  0  0  0  0
    2.1590   68.7490   66.3250 C   0  0  0  0  0  0  0  0  0  0  0  0
    3.3360   69.2550   66.9010 C   0  0  0  0  0  0  0  0  0  0  0  0
    4.4350   69.5760   66.1040 C   0  0  0  0  0  0  0  0  0  0  0  0
    5.8620   70.1720   66.8750 Cl  0  0  0  0  0  0  0  0  0  0  0  0
    4.3750   69.4420   64.7110 C   0  0  0  0  0  0  0  0  0  0  0  0
    3.2140   68.8980   64.1440 C   0  0  0  0  0  0  0  0  0  0  0  0
    2.0950   68.5670   64.9270 C   0  0  0  0  0  0  0  0  0  0  0  0
    5.5060   69.6300   63.8990 N   0  0  0  0  0  0  0  0  0  0  0  0
    0.9300   68.0610   64.4040 O   0  0  0  0  0  0  0  0  0  0  0  0
    0.1810   68.8940   63.5200 C   0  0  0  0  0  0  0  0  0  0  0  0
    0.0150   66.8230   68.8240 C   0  0  0  0  0  0  0  0  0  0  0  0
    0.4530   66.1610   70.1480 C   0  0  0  0  0  0  0  0  0  0  0  0
    0.9520   64.7240   69.9870 N   0  0  0  0  0  4  0  0  0  0  0  0
    3.1150   63.4580   69.8090 C   0  0  0  0  0  0  0  0  0  0  0  0
    2.3850   64.5970   70.5020 C   0  0  0  0  0  0  0  0  0  0  0  0
    0.0200   63.6580   70.5170 C   0  0  0  0  0  0  0  0  0  0  0  0
    0.1490   63.5130   72.0230 C   0  0  0  0  0  0  0  0  0  0  0  0
    1.9969   66.7116   67.9956 H   0  0  0  0  0  0  0  0  0  0  0  0
    3.3916   69.3994   67.9901 H   0  0  0  0  0  0  0  0  0  0  0  0
    3.1780   68.7258   63.0582 H   0  0  0  0  0  0  0  0  0  0  0  0
    5.4298   69.5244   62.8773 H   0  0  0  0  0  0  0  0  0  0  0  0
    6.4114   69.8735   64.3254 H   0  0  0  0  0  0  0  0  0  0  0  0
   -0.4410   69.5858   64.1070 H   0  0  0  0  0  0  0  0  0  0  0  0
    0.8712   69.4697   62.8858 H   0  0  0  0  0  0  0  0  0  0  0  0
   -0.4645   68.2687   62.8858 H   0  0  0  0  0  0  0  0  0  0  0  0
   -0.6170   67.6921   69.0590 H   0  0  0  0  0  0  0  0  0  0  0  0
   -0.5290   66.0649   68.2415 H   0  0  0  0  0  0  0  0  0  0  0  0
    1.2641   66.7625   70.5842 H   0  0  0  0  0  0  0  0  0  0  0  0
   -0.4364   66.1197   70.7939 H   0  0  0  0  0  0  0  0  0  0  0  0
    0.9582   64.5310   68.9753 H   0  0  0  0  0  0  0  0  0  0  0  0
    3.5462   62.7852   70.5649 H   0  0  0  0  0  0  0  0  0  0  0  0
    2.4074   62.8976   69.1803 H   0  0  0  0  0  0  0  0  0  0  0  0
    3.9197   63.8669   69.1803 H   0  0  0  0  0  0  0  0  0  0  0  0
    2.3622   64.4035   71.5846 H   0  0  0  0  0  0  0  0  0  0  0  0
    2.9180   65.5354   70.2889 H   0  0  0  0  0  0  0  0  0  0  0  0
   -1.0162   63.9330   70.2708 H   0  0  0  0  0  0  0  0  0  0  0  0
    0.2886   62.6984   70.0511 H   0  0  0  0  0  0  0  0  0  0  0  0
   -0.5035   64.2465   72.5192 H   0  0  0  0  0  0  0  0  0  0  0  0
   -0.1490   62.4968   72.3204 H   0  0  0  0  0  0  0  0  0  0  0  0
    1.1930   63.6907   72.3204 H   0  0  0  0  0  0  0  0  0  0  0  0
  2  1  1  0
  3  2  2  0
  4  2  1  0
  5  4  2  0
  6  5  1  0
  7  6  1  0
  8  6  2  0
  9  8  1  0
 10  9  2  0
 10  4  1  0
 11  8  1  0
 12 10  1  0
 13 12  1  0
 14  1  1  0
 15 14  1  0
 16 15  1  0
 18 17  1  0
 18 16  1  0
 19 16  1  0
 20 19  1  0
  1 21  1  0
  5 22  1  0
  9 23  1  0
 11 24  1  0
 11 25  1  0
 13 26  1  0
 13 27  1  0
 13 28  1  0
 14 29  1  0
 14 30  1  0
 15 31  1  0
 15 32  1  0
 16 33  1  0
 17 34  1  0
 17 35  1  0
 17 36  1  0
 18 37  1  0
 18 38  1  0
 19 39  1  0
 19 40  1  0
 20 41  1  0
 20 42  1  0
 20 43  1  0
M  CHG  1  16   1
M  END
>  <score>  (2) 
-7.021

$$$$
=
     RDKit          3D

 43 43  0  0  0  0  0  0  0  0999 V2000
    1.7850   69.0370   64.6920 N   0  0  0  0  0  0  0  0  0  0  0  0
    2.7430   68.3080   65.3630 C   0  0  0  0  0  0  0  0  0  0  0  0
    2.6880   67.0790   65.3800 O   0  0  0  0  0  0  0  0  0  0  0  0
    3.8520   69.0440   66.0490 C   0  0  0  0  0  0  0  0  0  0  0  0
    3.5270   69.6250   67.2860 C   0  0  0  0  0  0  0  0  0  0  0  0
    4.4870   70.3260   68.0150 C   0  0  0  0  0  0  0  0  0  0  0  0
    4.0310   70.9980   69.5410 Cl  0  0  0  0  0  0  0  0  0  0  0  0
    5.7820   70.5030   67.5120 C   0  0  0  0  0  0  0  0  0  0  0  0
    6.1150   69.8860   66.2980 C   0  0  0  0  0  0  0  0  0  0  0  0
    5.1630   69.1750   65.5460 C   0  0  0  0  0  0  0  0  0  0  0  0
    6.8030   71.0860   68.2820 N   0  0  0  0  0  0  0  0  0  0  0  0
    5.4440   68.5840   64.3380 O   0  0  0  0  0  0  0  0  0  0  0  0
    5.3650   69.3960   63.1670 C   0  0  0  0  0  0  0  0  0  0  0  0
    0.6020   68.3950   64.1600 C   0  0  0  0  0  0  0  0  0  0  0  0
   -0.6940   68.8270   64.8790 C   0  0  0  0  0  0  0  0  0  0  0  0
   -0.9700   68.0590   66.1730 N   0  0  0  0  0  4  0  0  0  0  0  0
    0.4330   67.5040   68.1820 C   0  0  0  0  0  0  0  0  0  0  0  0
   -0.1260   68.6210   67.3160 C   0  0  0  0  0  0  0  0  0  0  0  0
   -2.4320   67.8960   66.5230 C   0  0  0  0  0  0  0  0  0  0  0  0
   -3.3020   68.8360   65.7090 C   0  0  0  0  0  0  0  0  0  0  0  0
    1.9125   70.0515   64.5676 H   0  0  0  0  0  0  0  0  0  0  0  0
    2.5060   69.5261   67.6832 H   0  0  0  0  0  0  0  0  0  0  0  0
    7.1469   69.9599   65.9243 H   0  0  0  0  0  0  0  0  0  0  0  0
    7.7457   71.2026   67.8837 H   0  0  0  0  0  0  0  0  0  0  0  0
    6.6086   71.3966   69.2446 H   0  0  0  0  0  0  0  0  0  0  0  0
    5.2623   70.4516   63.4590 H   0  0  0  0  0  0  0  0  0  0  0  0
    6.2798   69.2681   62.5697 H   0  0  0  0  0  0  0  0  0  0  0  0
    4.4920   69.0942   62.5697 H   0  0  0  0  0  0  0  0  0  0  0  0
    0.5135   68.6513   63.0939 H   0  0  0  0  0  0  0  0  0  0  0  0
    0.7181   67.3120   64.3138 H   0  0  0  0  0  0  0  0  0  0  0  0
   -0.6155   69.8971   65.1213 H   0  0  0  0  0  0  0  0  0  0  0  0
   -1.5270   68.6092   64.1944 H   0  0  0  0  0  0  0  0  0  0  0  0
   -0.6717   67.0880   66.0026 H   0  0  0  0  0  0  0  0  0  0  0  0
    0.3034   67.7630   69.2432 H   0  0  0  0  0  0  0  0  0  0  0  0
   -0.1031   66.5684   67.9648 H   0  0  0  0  0  0  0  0  0  0  0  0
    1.5033   67.3723   67.9648 H   0  0  0  0  0  0  0  0  0  0  0  0
   -0.7532   69.2777   67.9368 H   0  0  0  0  0  0  0  0  0  0  0  0
    0.7150   69.1846   66.8858 H   0  0  0  0  0  0  0  0  0  0  0  0
   -2.7360   66.8589   66.3182 H   0  0  0  0  0  0  0  0  0  0  0  0
   -2.5629   68.1368   67.5883 H   0  0  0  0  0  0  0  0  0  0  0  0
   -3.8900   69.4714   66.3876 H   0  0  0  0  0  0  0  0  0  0  0  0
   -2.6641   69.4691   65.0747 H   0  0  0  0  0  0  0  0  0  0  0  0
   -3.9824   68.2489   65.0747 H   0  0  0  0  0  0  0  0  0  0  0  0
  2  1  1  0
  3  2  2  0
  4  2  1  0
  5  4  2  0
  6  5  1  0
  7  6  1  0
  8  6  2  0
  9  8  1  0
 10  9  2  0
 10  4  1  0
 11  8  1  0
 12 10  1  0
 13 12  1  0
 14  1  1  0
 15 14  1  0
 16 15  1  0
 18 17  1  0
 18 16  1  0
 19 16  1  0
 20 19  1  0
  1 21  1  0
  5 22  1  0
  9 23  1  0
 11 24  1  0
 11 25  1  0
 13 26  1  0
 13 27  1  0
 13 28  1  0
 14 29  1  0
 14 30  1  0
 15 31  1  0
 15 32  1  0
 16 33  1  0
 17 34  1  0
 17 35  1  0
 17 36  1  0
 18 37  1  0
 18 38  1  0
 19 39  1  0
 19 40  1  0
 20 41  1  0
 20 42  1  0
 20 43  1  0
M  CHG  1  16   1
M  END
>  <score>  (3) 
-6.982

$$$$
=
     RDKit          3D

 43 43  0  0  0  0  0  0  0  0999 V2000
    1.0090   67.3910   68.1650 N   0  0  0  0  0  0  0  0  0  0  0  0
    1.0860   67.3620   66.7890 C   0  0  0  0  0  0  0  0  0  0  0  0
    0.1650   66.8880   66.1260 O   0  0  0  0  0  0  0  0  0  0  0  0
    2.3030   67.9330   66.1280 C   0  0  0  0  0  0  0  0  0  0  0  0
    2.7760   67.2320   65.0060 C   0  0  0  0  0  0  0  0  0  0  0  0
    3.8970   67.6820   64.3090 C   0  0  0  0  0  0  0  0  0  0  0  0
    4.4150   66.7890   62.9230 Cl  0  0  0  0  0  0  0  0  0  0  0  0
    4.6010   68.8160   64.7370 C   0  0  0  0  0  0  0  0  0  0  0  0
    4.1010   69.5360   65.8310 C   0  0  0  0  0  0  0  0  0  0  0  0
    2.9730   69.1010   66.5480 C   0  0  0  0  0  0  0  0  0  0  0  0
    5.6480   69.3670   63.9790 N   0  0  0  0  0  0  0  0  0  0  0  0
    2.4740   69.7630   67.6440 O   0  0  0  0  0  0  0  0  0  0  0  0
    3.4070   70.2570   68.6030 C   0  0  0  0  0  0  0  0  0  0  0  0
   -0.0550   66.7020   68.8630 C   0  0  0  0  0  0  0  0  0  0  0  0
    0.4070   66.0660   70.1910 C   0  0  0  0  0  0  0  0  0  0  0  0
    0.9160   64.6310   70.0460 N   0  0  0  0  0  4  0  0  0  0  0  0
    3.0240   63.2890   69.7830 C   0  0  0  0  0  0  0  0  0  0  0  0
    2.4140   64.5660   70.3390 C   0  0  0  0  0  0  0  0  0  0  0  0
    0.1090   63.5860   70.7830 C   0  0  0  0  0  0  0  0  0  0  0  0
    0.3110   63.6910   72.2850 C   0  0  0  0  0  0  0  0  0  0  0  0
    1.7178   67.9096   68.7031 H   0  0  0  0  0  0  0  0  0  0  0  0
    2.2576   66.3202   64.6744 H   0  0  0  0  0  0  0  0  0  0  0  0
    4.6044   70.4653   66.1361 H   0  0  0  0  0  0  0  0  0  0  0  0
    6.1469   70.2012   64.3198 H   0  0  0  0  0  0  0  0  0  0  0  0
    5.9166   68.9367   63.0825 H   0  0  0  0  0  0  0  0  0  0  0  0
    3.0306   70.0577   69.6172 H   0  0  0  0  0  0  0  0  0  0  0  0
    4.3753   69.7534   68.4657 H   0  0  0  0  0  0  0  0  0  0  0  0
    3.5347   71.3409   68.4657 H   0  0  0  0  0  0  0  0  0  0  0  0
   -0.8563   67.4236   69.0802 H   0  0  0  0  0  0  0  0  0  0  0  0
   -0.4017   65.8866   68.2111 H   0  0  0  0  0  0  0  0  0  0  0  0
    1.2189   66.6814   70.6059 H   0  0  0  0  0  0  0  0  0  0  0  0
   -0.4727   66.0280   70.8503 H   0  0  0  0  0  0  0  0  0  0  0  0
    0.7708   64.3704   69.0601 H   0  0  0  0  0  0  0  0  0  0  0  0
    3.3346   62.6389   70.6142 H   0  0  0  0  0  0  0  0  0  0  0  0
    2.2789   62.7650   69.1663 H   0  0  0  0  0  0  0  0  0  0  0  0
    3.8998   63.5393   69.1663 H   0  0  0  0  0  0  0  0  0  0  0  0
    2.5690   64.5941   71.4277 H   0  0  0  0  0  0  0  0  0  0  0  0
    2.9025   65.4259   69.8574 H   0  0  0  0  0  0  0  0  0  0  0  0
   -0.9573   63.7293   70.5539 H   0  0  0  0  0  0  0  0  0  0  0  0
    0.4470   62.5917   70.4558 H   0  0  0  0  0  0  0  0  0  0  0  0
   -0.5501   63.2434   72.8029 H   0  0  0  0  0  0  0  0  0  0  0  0
    1.2289   63.1559   72.5698 H   0  0  0  0  0  0  0  0  0  0  0  0
    0.4004   64.7497   72.5698 H   0  0  0  0  0  0  0  0  0  0  0  0
  2  1  1  0
  3  2  2  0
  4  2  1  0
  5  4  2  0
  6  5  1  0
  7  6  1  0
  8  6  2  0
  9  8  1  0
 10  9  2  0
 10  4  1  0
 11  8  1  0
 12 10  1  0
 13 12  1  0
 14  1  1  0
 15 14  1  0
 16 15  1  0
 18 17  1  0
 18 16  1  0
 19 16  1  0
 20 19  1  0
  1 21  1  0
  5 22  1  0
  9 23  1  0
 11 24  1  0
 11 25  1  0
 13 26  1  0
 13 27  1  0
 13 28  1  0
 14 29  1  0
 14 30  1  0
 15 31  1  0
 15 32  1  0
 16 33  1  0
 17 34  1  0
 17 35  1  0
 17 36  1  0
 18 37  1  0
 18 38  1  0
 19 39  1  0
 19 40  1  0
 20 41  1  0
 20 42  1  0
 20 43  1  0
M  CHG  1  16   1
M  END
>  <score>  (4) 
-6.881

$$$$
=
     RDKit          3D

 43 43  0  0  0  0  0  0  0  0999 V2000
    1.2810   67.0640   68.0550 N   0  0  0  0  0  0  0  0  0  0  0  0
    1.7570   68.2310   67.4960 C   0  0  0  0  0  0  0  0  0  0  0  0
    2.2070   69.1230   68.2130 O   0  0  0  0  0  0  0  0  0  0  0  0
    1.7260   68.3740   66.0050 C   0  0  0  0  0  0  0  0  0  0  0  0
    2.9520   68.6920   65.3970 C   0  0  0  0  0  0  0  0  0  0  0  0
    3.0390   68.8400   64.0130 C   0  0  0  0  0  0  0  0  0  0  0  0
    4.5800   69.2080   63.3210 Cl  0  0  0  0  0  0  0  0  0  0  0  0
    1.9010   68.7170   63.2040 C   0  0  0  0  0  0  0  0  0  0  0  0
    0.6890   68.3580   63.8110 C   0  0  0  0  0  0  0  0  0  0  0  0
    0.5780   68.2050   65.2040 C   0  0  0  0  0  0  0  0  0  0  0  0
    1.9840   68.7270   61.8020 N   0  0  0  0  0  0  0  0  0  0  0  0
   -0.5990   67.8850   65.8360 O   0  0  0  0  0  0  0  0  0  0  0  0
   -1.5620   68.9230   66.0120 C   0  0  0  0  0  0  0  0  0  0  0  0
    1.1250   66.9370   69.4880 C   0  0  0  0  0  0  0  0  0  0  0  0
    0.1460   65.8140   69.8920 C   0  0  0  0  0  0  0  0  0  0  0  0
    0.8100   64.4460   70.0630 N   0  0  0  0  0  4  0  0  0  0  0  0
    3.0870   63.3930   69.9350 C   0  0  0  0  0  0  0  0  0  0  0  0
    2.2950   64.6110   70.3830 C   0  0  0  0  0  0  0  0  0  0  0  0
    0.0910   63.4970   70.9950 C   0  0  0  0  0  0  0  0  0  0  0  0
    0.3560   63.8450   72.4500 C   0  0  0  0  0  0  0  0  0  0  0  0
    1.0332   66.2722   67.4446 H   0  0  0  0  0  0  0  0  0  0  0  0
    3.8504   68.8253   66.0175 H   0  0  0  0  0  0  0  0  0  0  0  0
   -0.1974   68.1919   63.1812 H   0  0  0  0  0  0  0  0  0  0  0  0
    1.1292   68.6346   61.2348 H   0  0  0  0  0  0  0  0  0  0  0  0
    2.8997   68.8268   61.3410 H   0  0  0  0  0  0  0  0  0  0  0  0
   -1.7225   69.0960   67.0864 H   0  0  0  0  0  0  0  0  0  0  0  0
   -1.1946   69.8475   65.5426 H   0  0  0  0  0  0  0  0  0  0  0  0
   -2.5114   68.6258   65.5426 H   0  0  0  0  0  0  0  0  0  0  0  0
    2.1088   66.7198   69.9296 H   0  0  0  0  0  0  0  0  0  0  0  0
    0.7083   67.8852   69.8585 H   0  0  0  0  0  0  0  0  0  0  0  0
   -0.3256   66.0920   70.8461 H   0  0  0  0  0  0  0  0  0  0  0  0
   -0.5830   65.7157   69.0741 H   0  0  0  0  0  0  0  0  0  0  0  0
    0.7305   63.9692   69.1535 H   0  0  0  0  0  0  0  0  0  0  0  0
    3.4446   62.8431   70.8180 H   0  0  0  0  0  0  0  0  0  0  0  0
    2.4418   62.7377   69.3314 H   0  0  0  0  0  0  0  0  0  0  0  0
    3.9477   63.7170   69.3314 H   0  0  0  0  0  0  0  0  0  0  0  0
    2.4170   64.7401   71.4686 H   0  0  0  0  0  0  0  0  0  0  0  0
    2.6737   65.4927   69.8453 H   0  0  0  0  0  0  0  0  0  0  0  0
   -0.9905   63.5575   70.8034 H   0  0  0  0  0  0  0  0  0  0  0  0
    0.4632   62.4788   70.8084 H   0  0  0  0  0  0  0  0  0  0  0  0
   -0.1818   63.1388   73.0997 H   0  0  0  0  0  0  0  0  0  0  0  0
    1.4354   63.7799   72.6519 H   0  0  0  0  0  0  0  0  0  0  0  0
    0.0063   64.8682   72.6519 H   0  0  0  0  0  0  0  0  0  0  0  0
  2  1  1  0
  3  2  2  0
  4  2  1  0
  5  4  2  0
  6  5  1  0
  7  6  1  0
  8  6  2  0
  9  8  1  0
 10  9  2  0
 10  4  1  0
 11  8  1  0
 12 10  1  0
 13 12  1  0
 14  1  1  0
 15 14  1  0
 16 15  1  0
 18 17  1  0
 18 16  1  0
 19 16  1  0
 20 19  1  0
  1 21  1  0
  5 22  1  0
  9 23  1  0
 11 24  1  0
 11 25  1  0
 13 26  1  0
 13 27  1  0
 13 28  1  0
 14 29  1  0
 14 30  1  0
 15 31  1  0
 15 32  1  0
 16 33  1  0
 17 34  1  0
 17 35  1  0
 17 36  1  0
 18 37  1  0
 18 38  1  0
 19 39  1  0
 19 40  1  0
 20 41  1  0
 20 42  1  0
 20 43  1  0
M  CHG  1  16   1
M  END
>  <score>  (5) 
-6.752

$$$$
=
     RDKit          3D

 43 43  0  0  0  0  0  0  0  0999 V2000
    5.0670   69.7090   63.8930 N   0  0  0  0  0  0  0  0  0  0  0  0
    5.4660   69.1340   65.0810 C   0  0  0  0  0  0  0  0  0  0  0  0
    6.3480   68.2780   65.0900 O   0  0  0  0  0  0  0  0  0  0  0  0
    4.8130   69.5890   66.3500 C   0  0  0  0  0  0  0  0  0  0  0  0
    3.4300   69.3610   66.4430 C   0  0  0  0  0  0  0  0  0  0  0  0
    2.7240   69.7360   67.5850 C   0  0  0  0  0  0  0  0  0  0  0  0
    1.0280   69.4070   67.6480 Cl  0  0  0  0  0  0  0  0  0  0  0  0
    3.3680   70.3870   68.6460 C   0  0  0  0  0  0  0  0  0  0  0  0
    4.7560   70.5750   68.5670 C   0  0  0  0  0  0  0  0  0  0  0  0
    5.4870   70.2050   67.4260 C   0  0  0  0  0  0  0  0  0  0  0  0
    2.7120   70.6540   69.8590 N   0  0  0  0  0  0  0  0  0  0  0  0
    6.8410   70.4020   67.3000 O   0  0  0  0  0  0  0  0  0  0  0  0
    7.5550   70.8610   68.4470 C   0  0  0  0  0  0  0  0  0  0  0  0
    5.5340   69.1910   62.6250 C   0  0  0  0  0  0  0  0  0  0  0  0
    4.6210   68.0870   62.0510 C   0  0  0  0  0  0  0  0  0  0  0  0
    3.3630   67.8280   62.8840 N   0  0  0  0  0  4  0  0  0  0  0  0
    1.1240   68.9360   63.1500 C   0  0  0  0  0  0  0  0  0  0  0  0
    2.1270   68.3630   62.1620 C   0  0  0  0  0  0  0  0  0  0  0  0
    3.2060   66.4090   63.3850 C   0  0  0  0  0  0  0  0  0  0  0  0
    4.5500   65.7100   63.4900 C   0  0  0  0  0  0  0  0  0  0  0  0
    4.4287   70.5172   63.9082 H   0  0  0  0  0  0  0  0  0  0  0  0
    2.8992   68.8821   65.6070 H   0  0  0  0  0  0  0  0  0  0  0  0
    5.2855   71.0237   69.4205 H   0  0  0  0  0  0  0  0  0  0  0  0
    3.2126   71.1343   70.6203 H   0  0  0  0  0  0  0  0  0  0  0  0
    1.7304   70.3695   69.9871 H   0  0  0  0  0  0  0  0  0  0  0  0
    7.0372   70.5281   69.3587 H   0  0  0  0  0  0  0  0  0  0  0  0
    8.5748   70.4488   68.4333 H   0  0  0  0  0  0  0  0  0  0  0  0
    7.6034   71.9598   68.4333 H   0  0  0  0  0  0  0  0  0  0  0  0
    5.5784   70.0196   61.9029 H   0  0  0  0  0  0  0  0  0  0  0  0
    6.5236   68.7427   62.7973 H   0  0  0  0  0  0  0  0  0  0  0  0
    4.3109   68.3855   61.0387 H   0  0  0  0  0  0  0  0  0  0  0  0
    5.2050   67.1548   62.0558 H   0  0  0  0  0  0  0  0  0  0  0  0
    3.4787   68.3614   63.7575 H   0  0  0  0  0  0  0  0  0  0  0  0
    1.4674   68.7398   64.1765 H   0  0  0  0  0  0  0  0  0  0  0  0
    1.0349   70.0213   62.9943 H   0  0  0  0  0  0  0  0  0  0  0  0
    0.1439   68.4616   62.9943 H   0  0  0  0  0  0  0  0  0  0  0  0
    1.6532   67.5422   61.6037 H   0  0  0  0  0  0  0  0  0  0  0  0
    2.4409   69.1644   61.4770 H   0  0  0  0  0  0  0  0  0  0  0  0
    2.7341   66.4297   64.3784 H   0  0  0  0  0  0  0  0  0  0  0  0
    2.5810   65.8548   62.6693 H   0  0  0  0  0  0  0  0  0  0  0  0
    4.8109   65.5743   64.5500 H   0  0  0  0  0  0  0  0  0  0  0  0
    4.4919   64.7279   62.9980 H   0  0  0  0  0  0  0  0  0  0  0  0
    5.3208   66.3215   62.9980 H   0  0  0  0  0  0  0  0  0  0  0  0
  2  1  1  0
  3  2  2  0
  4  2  1  0
  5  4  2  0
  6  5  1  0
  7  6  1  0
  8  6  2  0
  9  8  1  0
 10  9  2  0
 10  4  1  0
 11  8  1  0
 12 10  1  0
 13 12  1  0
 14  1  1  0
 15 14  1  0
 16 15  1  0
 18 17  1  0
 18 16  1  0
 19 16  1  0
 20 19  1  0
  1 21  1  0
  5 22  1  0
  9 23  1  0
 11 24  1  0
 11 25  1  0
 13 26  1  0
 13 27  1  0
 13 28  1  0
 14 29  1  0
 14 30  1  0
 15 31  1  0
 15 32  1  0
 16 33  1  0
 17 34  1  0
 17 35  1  0
 17 36  1  0
 18 37  1  0
 18 38  1  0
 19 39  1  0
 19 40  1  0
 20 41  1  0
 20 42  1  0
 20 43  1  0
M  CHG  1  16   1
M  END
>  <score>  (6) 
-6.362

$$$$
=
     RDKit          3D

 43 43  0  0  0  0  0  0  0  0999 V2000
    1.7010   68.2030   63.3390 N   0  0  0  0  0  0  0  0  0  0  0  0
    0.6710   68.6720   64.1270 C   0  0  0  0  0  0  0  0  0  0  0  0
   -0.1650   69.4430   63.6600 O   0  0  0  0  0  0  0  0  0  0  0  0
    0.5900   68.2080   65.5490 C   0  0  0  0  0  0  0  0  0  0  0  0
   -0.6800   67.7990   65.9870 C   0  0  0  0  0  0  0  0  0  0  0  0
   -0.8670   67.3390   67.2900 C   0  0  0  0  0  0  0  0  0  0  0  0
   -2.4500   66.8290   67.7620 Cl  0  0  0  0  0  0  0  0  0  0  0  0
    0.1960   67.3150   68.2020 C   0  0  0  0  0  0  0  0  0  0  0  0
    1.4710   67.6830   67.7480 C   0  0  0  0  0  0  0  0  0  0  0  0
    1.6820   68.1490   66.4400 C   0  0  0  0  0  0  0  0  0  0  0  0
    0.0680   66.7320   69.4750 N   0  0  0  0  0  0  0  0  0  0  0  0
    2.9100   68.5480   65.9700 O   0  0  0  0  0  0  0  0  0  0  0  0
    3.6420   69.4970   66.7440 C   0  0  0  0  0  0  0  0  0  0  0  0
    1.9300   68.7470   62.0170 C   0  0  0  0  0  0  0  0  0  0  0  0
    3.3550   68.4740   61.4910 C   0  0  0  0  0  0  0  0  0  0  0  0
    4.3250   67.9730   62.5630 N   0  0  0  0  0  4  0  0  0  0  0  0
    4.2230   65.7650   63.7570 C   0  0  0  0  0  0  0  0  0  0  0  0
    4.5220   66.4630   62.4400 C   0  0  0  0  0  0  0  0  0  0  0  0
    5.6210   68.7460   62.6670 C   0  0  0  0  0  0  0  0  0  0  0  0
    5.6300   69.6440   63.8920 C   0  0  0  0  0  0  0  0  0  0  0  0
    2.3149   67.4566   63.6953 H   0  0  0  0  0  0  0  0  0  0  0  0
   -1.5349   67.8419   65.2961 H   0  0  0  0  0  0  0  0  0  0  0  0
    2.3275   67.6046   68.4338 H   0  0  0  0  0  0  0  0  0  0  0  0
    0.8683   66.7301   70.1234 H   0  0  0  0  0  0  0  0  0  0  0  0
   -0.8261   66.3068   69.7592 H   0  0  0  0  0  0  0  0  0  0  0  0
    3.4865   69.2954   67.8141 H   0  0  0  0  0  0  0  0  0  0  0  0
    4.7131   69.4151   66.5073 H   0  0  0  0  0  0  0  0  0  0  0  0
    3.2908   70.5122   66.5073 H   0  0  0  0  0  0  0  0  0  0  0  0
    1.2072   68.2949   61.3219 H   0  0  0  0  0  0  0  0  0  0  0  0
    1.8076   69.8381   62.0845 H   0  0  0  0  0  0  0  0  0  0  0  0
    3.2921   67.7141   60.6982 H   0  0  0  0  0  0  0  0  0  0  0  0
    3.7501   69.4333   61.1254 H   0  0  0  0  0  0  0  0  0  0  0  0
    3.8768   68.1640   63.4705 H   0  0  0  0  0  0  0  0  0  0  0  0
    4.5047   66.4225   64.5927 H   0  0  0  0  0  0  0  0  0  0  0  0
    3.1484   65.5374   63.8156 H   0  0  0  0  0  0  0  0  0  0  0  0
    4.7996   64.8301   63.8156 H   0  0  0  0  0  0  0  0  0  0  0  0
    5.5640   66.2585   62.1531 H   0  0  0  0  0  0  0  0  0  0  0  0
    3.8294   66.0805   61.6758 H   0  0  0  0  0  0  0  0  0  0  0  0
    6.4577   68.0353   62.7373 H   0  0  0  0  0  0  0  0  0  0  0  0
    5.7218   69.3777   61.7721 H   0  0  0  0  0  0  0  0  0  0  0  0
    5.6238   69.0244   64.8009 H   0  0  0  0  0  0  0  0  0  0  0  0
    6.5345   70.2700   63.8811 H   0  0  0  0  0  0  0  0  0  0  0  0
    4.7383   70.2880   63.8811 H   0  0  0  0  0  0  0  0  0  0  0  0
  2  1  1  0
  3  2  2  0
  4  2  1  0
  5  4  2  0
  6  5  1  0
  7  6  1  0
  8  6  2  0
  9  8  1  0
 10  9  2  0
 10  4  1  0
 11  8  1  0
 12 10  1  0
 13 12  1  0
 14  1  1  0
 15 14  1  0
 16 15  1  0
 18 17  1  0
 18 16  1  0
 19 16  1  0
 20 19  1  0
  1 21  1  0
  5 22  1  0
  9 23  1  0
 11 24  1  0
 11 25  1  0
 13 26  1  0
 13 27  1  0
 13 28  1  0
 14 29  1  0
 14 30  1  0
 15 31  1  0
 15 32  1  0
 16 33  1  0
 17 34  1  0
 17 35  1  0
 17 36  1  0
 18 37  1  0
 18 38  1  0
 19 39  1  0
 19 40  1  0
 20 41  1  0
 20 42  1  0
 20 43  1  0
M  CHG  1  16   1
M  END
>  <score>  (7) 
-6.267

$$$$
=
     RDKit          3D

 43 43  0  0  0  0  0  0  0  0999 V2000
    0.5150   65.0920   69.9730 N   0  0  0  0  0  0  0  0  0  0  0  0
    0.3920   64.5810   71.2480 C   0  0  0  0  0  0  0  0  0  0  0  0
   -0.1600   65.2380   72.1290 O   0  0  0  0  0  0  0  0  0  0  0  0
    0.9290   63.2100   71.5240 C   0  0  0  0  0  0  0  0  0  0  0  0
    0.0770   62.3520   72.2390 C   0  0  0  0  0  0  0  0  0  0  0  0
    0.4720   61.0500   72.5420 C   0  0  0  0  0  0  0  0  0  0  0  0
   -0.6300   60.0360   73.4050 Cl  0  0  0  0  0  0  0  0  0  0  0  0
    1.7420   60.5820   72.1780 C   0  0  0  0  0  0  0  0  0  0  0  0
    2.5720   61.4270   71.4280 C   0  0  0  0  0  0  0  0  0  0  0  0
    2.1940   62.7430   71.1110 C   0  0  0  0  0  0  0  0  0  0  0  0
    2.1140   59.2380   72.3510 N   0  0  0  0  0  0  0  0  0  0  0  0
    2.9940   63.6090   70.4050 O   0  0  0  0  0  0  0  0  0  0  0  0
    4.4020   63.3770   70.4220 C   0  0  0  0  0  0  0  0  0  0  0  0
    0.1740   66.4690   69.6900 C   0  0  0  0  0  0  0  0  0  0  0  0
    1.1610   67.1480   68.7170 C   0  0  0  0  0  0  0  0  0  0  0  0
    0.6370   67.2610   67.2840 N   0  0  0  0  0  4  0  0  0  0  0  0
   -1.4850   68.3260   66.4610 C   0  0  0  0  0  0  0  0  0  0  0  0
   -0.8880   67.1820   67.2660 C   0  0  0  0  0  0  0  0  0  0  0  0
    1.1940   68.4200   66.4870 C   0  0  0  0  0  0  0  0  0  0  0  0
    2.3670   69.0680   67.2020 C   0  0  0  0  0  0  0  0  0  0  0  0
    0.8540   64.4855   69.2126 H   0  0  0  0  0  0  0  0  0  0  0  0
   -0.9111   62.7109   72.5628 H   0  0  0  0  0  0  0  0  0  0  0  0
    3.5445   61.0501   71.0785 H   0  0  0  0  0  0  0  0  0  0  0  0
    3.0550   58.9243   72.0736 H   0  0  0  0  0  0  0  0  0  0  0  0
    1.4456   58.5666   72.7552 H   0  0  0  0  0  0  0  0  0  0  0  0
    4.7516   63.3194   71.4634 H   0  0  0  0  0  0  0  0  0  0  0  0
    4.6238   62.4302   69.9079 H   0  0  0  0  0  0  0  0  0  0  0  0
    4.9159   64.2026   69.9079 H   0  0  0  0  0  0  0  0  0  0  0  0
   -0.8316   66.4965   69.2449 H   0  0  0  0  0  0  0  0  0  0  0  0
    0.2180   67.0205   70.6407 H   0  0  0  0  0  0  0  0  0  0  0  0
    1.3733   68.1610   69.0894 H   0  0  0  0  0  0  0  0  0  0  0  0
    2.0603   66.5156   68.6801 H   0  0  0  0  0  0  0  0  0  0  0  0
    1.0044   66.4437   66.7761 H   0  0  0  0  0  0  0  0  0  0  0  0
   -1.8829   69.0884   67.1468 H   0  0  0  0  0  0  0  0  0  0  0  0
   -0.7057   68.7740   65.8270 H   0  0  0  0  0  0  0  0  0  0  0  0
   -2.2982   67.9430   65.8270 H   0  0  0  0  0  0  0  0  0  0  0  0
   -1.2629   67.2352   68.2988 H   0  0  0  0  0  0  0  0  0  0  0  0
   -1.1836   66.2322   66.7964 H   0  0  0  0  0  0  0  0  0  0  0  0
    1.5309   68.0518   65.5067 H   0  0  0  0  0  0  0  0  0  0  0  0
    0.4008   69.1728   66.3682 H   0  0  0  0  0  0  0  0  0  0  0  0
    2.2228   68.9884   68.2896 H   0  0  0  0  0  0  0  0  0  0  0  0
    3.2981   68.5563   66.9171 H   0  0  0  0  0  0  0  0  0  0  0  0
    2.4295   70.1286   66.9171 H   0  0  0  0  0  0  0  0  0  0  0  0
  2  1  1  0
  3  2  2  0
  4  2  1  0
  5  4  2  0
  6  5  1  0
  7  6  1  0
  8  6  2  0
  9  8  1  0
 10  9  2  0
 10  4  1  0
 11  8  1  0
 12 10  1  0
 13 12  1  0
 14  1  1  0
 15 14  1  0
 16 15  1  0
 18 17  1  0
 18 16  1  0
 19 16  1  0
 20 19  1  0
  1 21  1  0
  5 22  1  0
  9 23  1  0
 11 24  1  0
 11 25  1  0
 13 26  1  0
 13 27  1  0
 13 28  1  0
 14 29  1  0
 14 30  1  0
 15 31  1  0
 15 32  1  0
 16 33  1  0
 17 34  1  0
 17 35  1  0
 17 36  1  0
 18 37  1  0
 18 38  1  0
 19 39  1  0
 19 40  1  0
 20 41  1  0
 20 42  1  0
 20 43  1  0
M  CHG  1  16   1
M  END
>  <score>  (8) 
-6.221

$$$$
=
     RDKit          3D

 43 43  0  0  0  0  0  0  0  0999 V2000
    4.2010   60.2380   72.1770 N   0  0  0  0  0  0  0  0  0  0  0  0
    3.4690   59.1890   71.6640 C   0  0  0  0  0  0  0  0  0  0  0  0
    3.8140   58.6470   70.6160 O   0  0  0  0  0  0  0  0  0  0  0  0
    2.2630   58.7210   72.4190 C   0  0  0  0  0  0  0  0  0  0  0  0
    2.2220   57.3490   72.7160 C   0  0  0  0  0  0  0  0  0  0  0  0
    1.1490   56.8080   73.4240 C   0  0  0  0  0  0  0  0  0  0  0  0
    1.1690   55.1160   73.7790 Cl  0  0  0  0  0  0  0  0  0  0  0  0
    0.0700   57.6110   73.8170 C   0  0  0  0  0  0  0  0  0  0  0  0
    0.1350   58.9870   73.5550 C   0  0  0  0  0  0  0  0  0  0  0  0
    1.2060   59.5540   72.8430 C   0  0  0  0  0  0  0  0  0  0  0  0
   -0.9550   57.1220   74.6440 N   0  0  0  0  0  0  0  0  0  0  0  0
    1.2870   60.8910   72.5420 O   0  0  0  0  0  0  0  0  0  0  0  0
    1.2780   61.8190   73.6250 C   0  0  0  0  0  0  0  0  0  0  0  0
    5.2680   60.8440   71.4100 C   0  0  0  0  0  0  0  0  0  0  0  0
    4.9390   62.2800   70.9480 C   0  0  0  0  0  0  0  0  0  0  0  0
    3.4680   62.4930   70.5860 N   0  0  0  0  0  4  0  0  0  0  0  0
    1.5470   64.1050   70.7390 C   0  0  0  0  0  0  0  0  0  0  0  0
    3.0510   63.9330   70.8780 C   0  0  0  0  0  0  0  0  0  0  0  0
    3.0700   62.0130   69.2080 C   0  0  0  0  0  0  0  0  0  0  0  0
    3.7610   62.8210   68.1230 C   0  0  0  0  0  0  0  0  0  0  0  0
    3.9858   60.5953   73.1187 H   0  0  0  0  0  0  0  0  0  0  0  0
    3.0434   56.6953   72.3874 H   0  0  0  0  0  0  0  0  0  0  0  0
   -0.6734   59.6398   73.9162 H   0  0  0  0  0  0  0  0  0  0  0  0
   -1.7352   57.7372   74.9156 H   0  0  0  0  0  0  0  0  0  0  0  0
   -0.9263   56.1483   74.9787 H   0  0  0  0  0  0  0  0  0  0  0  0
    1.2833   61.2701   74.5783 H   0  0  0  0  0  0  0  0  0  0  0  0
    2.1700   62.4600   73.5660 H   0  0  0  0  0  0  0  0  0  0  0  0
    0.3738   62.4426   73.5660 H   0  0  0  0  0  0  0  0  0  0  0  0
    6.1737   60.8753   72.0335 H   0  0  0  0  0  0  0  0  0  0  0  0
    5.4119   60.2328   70.5068 H   0  0  0  0  0  0  0  0  0  0  0  0
    5.1995   62.9736   71.7610 H   0  0  0  0  0  0  0  0  0  0  0  0
    5.5225   62.4628   70.0336 H   0  0  0  0  0  0  0  0  0  0  0  0
    2.9249   61.8723   71.2029 H   0  0  0  0  0  0  0  0  0  0  0  0
    1.0900   64.1573   71.7382 H   0  0  0  0  0  0  0  0  0  0  0  0
    1.3334   65.0334   70.1891 H   0  0  0  0  0  0  0  0  0  0  0  0
    1.1293   63.2488   70.1891 H   0  0  0  0  0  0  0  0  0  0  0  0
    3.5567   64.6045   70.1686 H   0  0  0  0  0  0  0  0  0  0  0  0
    3.3370   64.1773   71.9117 H   0  0  0  0  0  0  0  0  0  0  0  0
    3.3516   60.9550   69.1016 H   0  0  0  0  0  0  0  0  0  0  0  0
    1.9829   62.1386   69.0963 H   0  0  0  0  0  0  0  0  0  0  0  0
    4.4092   63.5790   68.5870 H   0  0  0  0  0  0  0  0  0  0  0  0
    4.3696   62.1508   67.4982 H   0  0  0  0  0  0  0  0  0  0  0  0
    3.0045   63.3183   67.4982 H   0  0  0  0  0  0  0  0  0  0  0  0
  2  1  1  0
  3  2  2  0
  4  2  1  0
  5  4  2  0
  6  5  1  0
  7  6  1  0
  8  6  2  0
  9  8  1  0
 10  9  2  0
 10  4  1  0
 11  8  1  0
 12 10  1  0
 13 12  1  0
 14  1  1  0
 15 14  1  0
 16 15  1  0
 18 17  1  0
 18 16  1  0
 19 16  1  0
 20 19  1  0
  1 21  1  0
  5 22  1  0
  9 23  1  0
 11 24  1  0
 11 25  1  0
 13 26  1  0
 13 27  1  0
 13 28  1  0
 14 29  1  0
 14 30  1  0
 15 31  1  0
 15 32  1  0
 16 33  1  0
 17 34  1  0
 17 35  1  0
 17 36  1  0
 18 37  1  0
 18 38  1  0
 19 39  1  0
 19 40  1  0
 20 41  1  0
 20 42  1  0
 20 43  1  0
M  CHG  1  16   1
M  END
>  <score>  (9) 
-5.711

$$$$
