=
     RDKit          3D

118122  0  0  0  0  0  0  0  0999 V2000
    1.9160   55.9080   74.3660 C   0  0  1  0  0  0  0  0  0  0  0  0
    2.4680   55.6930   72.9720 C   0  0  0  0  0  0  0  0  0  0  0  0
    2.6830   56.4320   71.8690 C   0  0  0  0  0  0  0  0  0  0  0  0
    2.5620   57.7230   71.4860 O   0  0  0  0  0  0  0  0  0  0  0  0
    2.4210   58.8610   72.3080 C   0  0  1  0  0  0  0  0  0  0  0  0
    3.5540   58.9780   73.3310 C   0  0  0  0  0  0  0  0  0  0  0  0
    2.5460   60.0720   71.4750 O   0  0  0  0  0  0  0  0  0  0  0  0
    1.7090   61.0120   72.0300 C   0  0  0  0  0  0  0  0  0  0  0  0
    0.7680   60.4970   72.9030 C   0  0  0  0  0  0  0  0  0  0  0  0
    1.0380   59.0750   72.9050 C   0  0  0  0  0  0  0  0  0  0  0  0
    0.2340   58.2470   73.3030 O   0  0  0  0  0  0  0  0  0  0  0  0
   -0.1380   61.2780   73.6420 C   0  0  0  0  0  0  0  0  0  0  0  0
   -1.1280   60.7750   74.5320 C   0  0  0  0  0  0  0  0  0  0  0  0
   -1.8730   61.6420   75.3300 C   0  0  0  0  0  0  0  0  0  0  0  0
   -1.6020   63.0060   75.3420 C   0  0  0  0  0  0  0  0  0  0  0  0
   -0.7420   63.5290   74.3780 C   0  0  0  0  0  0  0  0  0  0  0  0
    0.0110   62.6910   73.5030 C   0  0  0  0  0  0  0  0  0  0  0  0
    0.9550   63.1950   72.5420 C   0  0  0  0  0  0  0  0  0  0  0  0
    1.8000   62.3680   71.7770 C   0  0  0  0  0  0  0  0  0  0  0  0
    2.8040   62.9010   70.7990 C   0  0  0  0  0  0  0  0  0  0  0  0
   -2.0930   63.8390   76.3880 N   0  0  0  0  0  0  0  0  0  0  0  0
   -1.7130   63.4730   77.6730 C   0  0  0  0  0  0  0  0  0  0  0  0
   -0.7690   62.7160   77.8940 O   0  0  0  0  0  0  0  0  0  0  0  0
   -2.5800   64.0150   78.7660 C   0  0  0  0  0  0  0  0  0  0  0  0
   -2.9490   63.2160   79.7930 C   0  0  0  0  0  0  0  0  0  0  0  0
   -2.5710   61.8250   79.9750 C   0  0  0  0  0  0  0  0  0  0  0  0
   -1.3630   61.4660   80.4410 C   0  0  0  0  0  0  0  0  0  0  0  0
   -0.7200   60.0790   80.4560 C   0  0  1  0  0  0  0  0  0  0  0  0
   -1.2930   59.0830   79.3840 C   0  0  1  0  0  0  0  0  0  0  0  0
   -0.4290   57.8100   79.0830 C   0  0  2  0  0  0  0  0  0  0  0  0
   -0.9290   56.9650   77.8540 C   0  0  2  0  0  0  0  0  0  0  0  0
    0.2120   56.2980   76.9860 C   0  0  2  0  0  0  0  0  0  0  0  0
   -0.3800   55.6610   75.6860 C   0  0  1  0  0  0  0  0  0  0  0  0
    0.5750   55.1200   74.5570 C   0  0  2  0  0  0  0  0  0  0  0  0
    0.7860   53.5910   74.6460 C   0  0  0  0  0  0  0  0  0  0  0  0
    0.9920   55.2840   77.8250 C   0  0  0  0  0  0  0  0  0  0  0  0
   -0.3550   56.9290   80.3460 C   0  0  0  0  0  0  0  0  0  0  0  0
    0.7950   60.2860   80.2870 C   0  0  0  0  0  0  0  0  0  0  0  0
   -3.0470   65.4320   78.6470 C   0  0  0  0  0  0  0  0  0  0  0  0
    3.7310   56.2740   75.9150 C   0  0  0  0  0  0  0  0  0  0  0  0
    2.8570   55.3500   75.2920 O   0  0  0  0  0  0  0  0  0  0  0  0
   -1.3760   59.4390   74.7220 O   0  0  0  0  0  0  0  0  0  0  0  0
   -3.0060   61.1170   76.1020 C   0  0  0  0  0  0  0  0  0  0  0  0
   -4.1950   61.1200   75.5850 N   0  0  0  0  0  0  0  0  0  0  0  0
   -5.1980   60.5550   76.3470 N   0  0  0  0  0  0  0  0  0  0  0  0
   -6.5230   60.7760   75.7600 C   0  0  0  0  0  0  0  0  0  0  0  0
   -6.7440   59.8550   74.5500 C   0  0  0  0  0  0  0  0  0  0  0  0
   -6.5310   58.3930   74.9460 N   0  0  0  0  0  4  0  0  0  0  0  0
   -5.1410   58.1970   75.5860 C   0  0  0  0  0  0  0  0  0  0  0  0
   -4.9820   59.1580   76.7730 C   0  0  0  0  0  0  0  0  0  0  0  0
   -6.7210   57.4710   73.7840 C   0  0  0  0  0  0  0  0  0  0  0  0
    1.0350   64.5670   72.4140 O   0  0  0  0  0  0  0  0  0  0  0  0
   -0.5960   64.8990   74.3840 O   0  0  0  0  0  0  0  0  0  0  0  0
   -1.7380   57.7630   76.9860 O   0  0  0  0  0  0  0  0  0  0  0  0
   -2.6120   58.6550   79.7740 O   0  0  0  0  0  0  0  0  0  0  0  0
   -1.2700   54.5930   76.1120 O   0  0  0  0  0  0  0  0  0  0  0  0
   -2.5330   54.5530   75.6280 C   0  0  0  0  0  0  0  0  0  0  0  0
   -3.2080   55.5060   75.2620 O   0  0  0  0  0  0  0  0  0  0  0  0
   -3.0200   53.1350   75.6230 C   0  0  0  0  0  0  0  0  0  0  0  0
    1.7442   56.9829   74.5244 H   0  0  0  0  0  0  0  0  0  0  0  0
    2.7771   54.6483   72.8205 H   0  0  0  0  0  0  0  0  0  0  0  0
    3.0653   55.8104   71.0459 H   0  0  0  0  0  0  0  0  0  0  0  0
    3.1360   58.9348   74.3476 H   0  0  0  0  0  0  0  0  0  0  0  0
    4.2623   58.1482   73.1902 H   0  0  0  0  0  0  0  0  0  0  0  0
    4.0778   59.9350   73.1902 H   0  0  0  0  0  0  0  0  0  0  0  0
    3.6469   63.3485   71.3460 H   0  0  0  0  0  0  0  0  0  0  0  0
    3.1719   62.0795   70.1668 H   0  0  0  0  0  0  0  0  0  0  0  0
    2.3296   63.6660   70.1668 H   0  0  0  0  0  0  0  0  0  0  0  0
   -2.6899   64.6580   76.2038 H   0  0  0  0  0  0  0  0  0  0  0  0
   -3.5962   63.6612   80.5630 H   0  0  0  0  0  0  0  0  0  0  0  0
   -3.2983   61.0393   79.7228 H   0  0  0  0  0  0  0  0  0  0  0  0
   -0.7561   62.2778   80.8685 H   0  0  0  0  0  0  0  0  0  0  0  0
   -0.9583   59.5920   81.4131 H   0  0  0  0  0  0  0  0  0  0  0  0
   -1.2931   59.6658   78.4511 H   0  0  0  0  0  0  0  0  0  0  0  0
    0.5714   58.1714   78.8028 H   0  0  0  0  0  0  0  0  0  0  0  0
   -1.5050   56.1461   78.3096 H   0  0  0  0  0  0  0  0  0  0  0  0
    0.9207   57.0763   76.6664 H   0  0  0  0  0  0  0  0  0  0  0  0
   -0.8522   56.5103   75.1705 H   0  0  0  0  0  0  0  0  0  0  0  0
    0.0250   55.3233   73.6263 H   0  0  0  0  0  0  0  0  0  0  0  0
    0.8279   53.2875   75.7025 H   0  0  0  0  0  0  0  0  0  0  0  0
   -0.0496   53.0760   74.1494 H   0  0  0  0  0  0  0  0  0  0  0  0
    1.7298   53.3216   74.1494 H   0  0  0  0  0  0  0  0  0  0  0  0
    0.8322   55.4918   78.8933 H   0  0  0  0  0  0  0  0  0  0  0  0
    0.6404   54.2680   77.5925 H   0  0  0  0  0  0  0  0  0  0  0  0
    2.0642   55.3632   77.5925 H   0  0  0  0  0  0  0  0  0  0  0  0
   -0.4085   57.5661   81.2411 H   0  0  0  0  0  0  0  0  0  0  0  0
   -1.1968   56.2210   80.3490 H   0  0  0  0  0  0  0  0  0  0  0  0
    0.5932   56.3713   80.3490 H   0  0  0  0  0  0  0  0  0  0  0  0
    1.2690   60.3508   81.2775 H   0  0  0  0  0  0  0  0  0  0  0  0
    1.2212   59.4377   79.7313 H   0  0  0  0  0  0  0  0  0  0  0  0
    0.9781   61.2175   79.7313 H   0  0  0  0  0  0  0  0  0  0  0  0
   -3.1872   65.8574   79.6517 H   0  0  0  0  0  0  0  0  0  0  0  0
   -2.2955   66.0211   78.1009 H   0  0  0  0  0  0  0  0  0  0  0  0
   -4.0015   65.4589   78.1009 H   0  0  0  0  0  0  0  0  0  0  0  0
    3.6438   56.1818   77.0077 H   0  0  0  0  0  0  0  0  0  0  0  0
    4.7665   56.0618   75.6106 H   0  0  0  0  0  0  0  0  0  0  0  0
    3.4615   57.2961   75.6106 H   0  0  0  0  0  0  0  0  0  0  0  0
   -2.0795   59.1515   75.3564 H   0  0  0  0  0  0  0  0  0  0  0  0
   -2.8466   60.7222   77.1163 H   0  0  0  0  0  0  0  0  0  0  0  0
   -7.2926   60.5670   76.5177 H   0  0  0  0  0  0  0  0  0  0  0  0
   -6.5902   61.8214   75.4244 H   0  0  0  0  0  0  0  0  0  0  0  0
   -7.7716   59.9840   74.1794 H   0  0  0  0  0  0  0  0  0  0  0  0
   -6.0221   60.1202   73.7635 H   0  0  0  0  0  0  0  0  0  0  0  0
   -7.2470   58.1536   75.6466 H   0  0  0  0  0  0  0  0  0  0  0  0
   -5.0431   57.1597   75.9388 H   0  0  0  0  0  0  0  0  0  0  0  0
   -4.3613   58.4062   74.8388 H   0  0  0  0  0  0  0  0  0  0  0  0
   -5.7183   58.8991   77.5482 H   0  0  0  0  0  0  0  0  0  0  0  0
   -3.9604   59.0635   77.1697 H   0  0  0  0  0  0  0  0  0  0  0  0
   -6.9302   56.4557   74.1519 H   0  0  0  0  0  0  0  0  0  0  0  0
   -7.5659   57.8208   73.1727 H   0  0  0  0  0  0  0  0  0  0  0  0
   -5.8066   57.4583   73.1727 H   0  0  0  0  0  0  0  0  0  0  0  0
    1.6683   64.9677   71.7671 H   0  0  0  0  0  0  0  0  0  0  0  0
    0.0002   65.3362   73.7256 H   0  0  0  0  0  0  0  0  0  0  0  0
   -2.3281   58.3450   77.5274 H   0  0  0  0  0  0  0  0  0  0  0  0
   -2.6738   58.6349   80.7619 H   0  0  0  0  0  0  0  0  0  0  0  0
   -3.1402   52.7850   76.6589 H   0  0  0  0  0  0  0  0  0  0  0  0
   -3.9880   53.0816   75.1032 H   0  0  0  0  0  0  0  0  0  0  0  0
   -2.2891   52.4981   75.1032 H   0  0  0  0  0  0  0  0  0  0  0  0
  2  1  1  0
  3  2  2  0
  4  3  1  0
  5  4  1  0
  5  6  1  1
  7  5  1  0
  8  7  1  0
  9  8  2  0
 10  5  1  0
 10  9  1  0
 11 10  2  0
 12  9  1  0
 13 12  2  0
 14 13  1  0
 15 14  2  0
 16 15  1  0
 17 16  2  0
 17 12  1  0
 18 17  1  0
 19 18  2  0
 19  8  1  0
 20 19  1  0
 21 15  1  0
 22 21  1  0
 23 22  2  0
 24 22  1  0
 25 24  2  0
 26 25  1  0
 27 26  2  0
 28 27  1  0
 29 28  1  0
 30 29  1  0
 31 30  1  0
 32 31  1  0
 33 32  1  0
 34 33  1  0
 34  1  1  0
 35 34  1  0
 36 32  1  0
 37 30  1  0
 38 28  1  0
 39 24  1  0
 41 40  1  0
 41  1  1  0
 42 13  1  0
 43 14  1  0
 44 43  2  0
 45 44  1  0
 46 45  1  0
 47 46  1  0
 48 47  1  0
 49 48  1  0
 50 49  1  0
 50 45  1  0
 51 48  1  0
 52 18  1  0
 53 16  1  0
 54 31  1  0
 55 29  1  0
 56 33  1  0
 57 56  1  0
 58 57  2  0
 59 57  1  0
  1 60  1  1
  2 61  1  0
  3 62  1  0
  6 63  1  0
  6 64  1  0
  6 65  1  0
 20 66  1  0
 20 67  1  0
 20 68  1  0
 21 69  1  0
 25 70  1  0
 26 71  1  0
 27 72  1  0
 28 73  1  1
 29 74  1  6
 30 75  1  6
 31 76  1  1
 32 77  1  6
 33 78  1  6
 34 79  1  6
 35 80  1  0
 35 81  1  0
 35 82  1  0
 36 83  1  0
 36 84  1  0
 36 85  1  0
 37 86  1  0
 37 87  1  0
 37 88  1  0
 38 89  1  0
 38 90  1  0
 38 91  1  0
 39 92  1  0
 39 93  1  0
 39 94  1  0
 40 95  1  0
 40 96  1  0
 40 97  1  0
 42 98  1  0
 43 99  1  0
 46100  1  0
 46101  1  0
 47102  1  0
 47103  1  0
 48104  1  0
 49105  1  0
 49106  1  0
 50107  1  0
 50108  1  0
 51109  1  0
 51110  1  0
 51111  1  0
 52112  1  0
 53113  1  0
 54114  1  0
 55115  1  0
 59116  1  0
 59117  1  0
 59118  1  0
M  CHG  1  48   1
M  END
>  <score>  (1) 
-6.822

$$$$
=
     RDKit          3D

118122  0  0  0  0  0  0  0  0999 V2000
   -1.2860   63.5740   76.0900 C   0  0  1  0  0  0  0  0  0  0  0  0
   -0.5640   64.7770   75.5230 C   0  0  0  0  0  0  0  0  0  0  0  0
    0.3930   65.0150   74.6060 C   0  0  0  0  0  0  0  0  0  0  0  0
    1.1280   64.3110   73.7180 O   0  0  0  0  0  0  0  0  0  0  0  0
    0.8890   63.0080   73.2340 C   0  0  1  0  0  0  0  0  0  0  0  0
   -0.5040   62.8670   72.6160 C   0  0  0  0  0  0  0  0  0  0  0  0
    1.8180   62.7300   72.1230 O   0  0  0  0  0  0  0  0  0  0  0  0
    2.1170   61.3900   72.1920 C   0  0  0  0  0  0  0  0  0  0  0  0
    1.8070   60.7950   73.4020 C   0  0  0  0  0  0  0  0  0  0  0  0
    1.2480   61.8760   74.1870 C   0  0  0  0  0  0  0  0  0  0  0  0
    1.1450   61.8300   75.4010 O   0  0  0  0  0  0  0  0  0  0  0  0
    1.9540   59.4230   73.6720 C   0  0  0  0  0  0  0  0  0  0  0  0
    1.6610   58.7890   74.9110 C   0  0  0  0  0  0  0  0  0  0  0  0
    1.6970   57.4000   75.0240 C   0  0  0  0  0  0  0  0  0  0  0  0
    1.9280   56.6010   73.9100 C   0  0  0  0  0  0  0  0  0  0  0  0
    2.3560   57.2040   72.7290 C   0  0  0  0  0  0  0  0  0  0  0  0
    2.3850   58.6220   72.5710 C   0  0  0  0  0  0  0  0  0  0  0  0
    2.7580   59.2760   71.3450 C   0  0  0  0  0  0  0  0  0  0  0  0
    2.6520   60.6650   71.1440 C   0  0  0  0  0  0  0  0  0  0  0  0
    3.0140   61.3370   69.8520 C   0  0  0  0  0  0  0  0  0  0  0  0
    1.6210   55.2110   73.9300 N   0  0  0  0  0  0  0  0  0  0  0  0
    0.3000   54.8940   74.2240 C   0  0  0  0  0  0  0  0  0  0  0  0
   -0.6120   55.7160   74.1400 O   0  0  0  0  0  0  0  0  0  0  0  0
    0.0800   53.4970   74.7130 C   0  0  0  0  0  0  0  0  0  0  0  0
   -0.7480   53.2720   75.7590 C   0  0  0  0  0  0  0  0  0  0  0  0
   -1.4980   54.2790   76.4910 C   0  0  0  0  0  0  0  0  0  0  0  0
   -2.6340   54.8140   76.0130 C   0  0  0  0  0  0  0  0  0  0  0  0
   -3.3990   56.0380   76.5180 C   0  0  1  0  0  0  0  0  0  0  0  0
   -2.5280   57.0580   77.3380 C   0  0  1  0  0  0  0  0  0  0  0  0
   -3.1350   58.4890   77.5380 C   0  0  2  0  0  0  0  0  0  0  0  0
   -2.1390   59.5320   78.1670 C   0  0  2  0  0  0  0  0  0  0  0  0
   -2.2830   61.0110   77.6270 C   0  0  2  0  0  0  0  0  0  0  0  0
   -1.1200   61.9110   78.1600 C   0  0  1  0  0  0  0  0  0  0  0  0
   -0.9200   63.3700   77.6000 C   0  0  2  0  0  0  0  0  0  0  0  0
   -1.5440   64.4450   78.5190 C   0  0  0  0  0  0  0  0  0  0  0  0
   -3.6600   61.5730   77.9800 C   0  0  0  0  0  0  0  0  0  0  0  0
   -4.4170   58.3890   78.3900 C   0  0  0  0  0  0  0  0  0  0  0  0
   -4.0450   56.7020   75.2900 C   0  0  0  0  0  0  0  0  0  0  0  0
    0.8370   52.3960   74.0400 C   0  0  0  0  0  0  0  0  0  0  0  0
   -3.0450   65.2270   76.0260 C   0  0  0  0  0  0  0  0  0  0  0  0
   -2.6920   63.8550   76.0420 O   0  0  0  0  0  0  0  0  0  0  0  0
    1.2670   59.4620   76.0400 O   0  0  0  0  0  0  0  0  0  0  0  0
    1.5690   56.7810   76.3500 C   0  0  0  0  0  0  0  0  0  0  0  0
    2.1000   57.3560   77.3840 N   0  0  0  0  0  0  0  0  0  0  0  0
    1.8860   56.7470   78.6040 N   0  0  0  0  0  0  0  0  0  0  0  0
    2.8100   55.6320   78.8300 C   0  0  0  0  0  0  0  0  0  0  0  0
    4.2130   56.1470   79.1860 C   0  0  0  0  0  0  0  0  0  0  0  0
    4.1450   57.0860   80.3920 N   0  0  0  0  0  4  0  0  0  0  0  0
    3.1460   58.2340   80.1360 C   0  0  0  0  0  0  0  0  0  0  0  0
    1.7750   57.6480   79.7690 C   0  0  0  0  0  0  0  0  0  0  0  0
    5.4940   57.6220   80.7530 C   0  0  0  0  0  0  0  0  0  0  0  0
    3.2060   58.4640   70.3230 O   0  0  0  0  0  0  0  0  0  0  0  0
    2.6630   56.3480   71.6940 O   0  0  0  0  0  0  0  0  0  0  0  0
   -0.7840   59.1180   77.9740 O   0  0  0  0  0  0  0  0  0  0  0  0
   -2.2260   56.5070   78.6340 O   0  0  0  0  0  0  0  0  0  0  0  0
   -1.2670   61.9700   79.6050 O   0  0  0  0  0  0  0  0  0  0  0  0
   -0.2530   61.5370   80.3910 C   0  0  0  0  0  0  0  0  0  0  0  0
   -0.0580   60.3890   80.7670 O   0  0  0  0  0  0  0  0  0  0  0  0
    0.6140   62.6990   80.7700 C   0  0  0  0  0  0  0  0  0  0  0  0
   -1.0062   62.6802   75.5131 H   0  0  0  0  0  0  0  0  0  0  0  0
   -0.9167   65.7106   75.9855 H   0  0  0  0  0  0  0  0  0  0  0  0
    0.6481   66.0844   74.5700 H   0  0  0  0  0  0  0  0  0  0  0  0
   -1.2544   62.7910   73.4167 H   0  0  0  0  0  0  0  0  0  0  0  0
   -0.7199   63.7479   71.9935 H   0  0  0  0  0  0  0  0  0  0  0  0
   -0.5390   61.9607   71.9935 H   0  0  0  0  0  0  0  0  0  0  0  0
    3.5259   62.2873   70.0638 H   0  0  0  0  0  0  0  0  0  0  0  0
    3.6814   60.6822   69.2725 H   0  0  0  0  0  0  0  0  0  0  0  0
    2.1000   61.5341   69.2725 H   0  0  0  0  0  0  0  0  0  0  0  0
    2.3302   54.4887   73.7394 H   0  0  0  0  0  0  0  0  0  0  0  0
   -0.8646   52.2283   76.0864 H   0  0  0  0  0  0  0  0  0  0  0  0
   -1.1230   54.6144   77.4692 H   0  0  0  0  0  0  0  0  0  0  0  0
   -3.0720   54.3036   75.1426 H   0  0  0  0  0  0  0  0  0  0  0  0
   -4.1562   55.7037   77.2425 H   0  0  0  0  0  0  0  0  0  0  0  0
   -1.6311   57.2030   76.7179 H   0  0  0  0  0  0  0  0  0  0  0  0
   -3.3656   58.8729   76.5333 H   0  0  0  0  0  0  0  0  0  0  0  0
   -2.4108   59.5527   79.2327 H   0  0  0  0  0  0  0  0  0  0  0  0
   -2.2034   61.0019   76.5299 H   0  0  0  0  0  0  0  0  0  0  0  0
   -0.2126   61.4163   77.7834 H   0  0  0  0  0  0  0  0  0  0  0  0
    0.1704   63.5133   77.6195 H   0  0  0  0  0  0  0  0  0  0  0  0
   -1.3825   64.1668   79.5709 H   0  0  0  0  0  0  0  0  0  0  0  0
   -1.0700   65.4175   78.3200 H   0  0  0  0  0  0  0  0  0  0  0  0
   -2.6235   64.5157   78.3200 H   0  0  0  0  0  0  0  0  0  0  0  0
   -3.7686   61.6173   79.0737 H   0  0  0  0  0  0  0  0  0  0  0  0
   -3.7618   62.5846   77.5601 H   0  0  0  0  0  0  0  0  0  0  0  0
   -4.4406   60.9215   77.5601 H   0  0  0  0  0  0  0  0  0  0  0  0
   -4.1506   58.4098   79.4571 H   0  0  0  0  0  0  0  0  0  0  0  0
   -5.0771   59.2384   78.1603 H   0  0  0  0  0  0  0  0  0  0  0  0
   -4.9374   57.4475   78.1603 H   0  0  0  0  0  0  0  0  0  0  0  0
   -4.7763   57.4537   75.6219 H   0  0  0  0  0  0  0  0  0  0  0  0
   -3.2666   57.1899   74.6850 H   0  0  0  0  0  0  0  0  0  0  0  0
   -4.5541   55.9373   74.6850 H   0  0  0  0  0  0  0  0  0  0  0  0
    1.2869   51.7417   74.8013 H   0  0  0  0  0  0  0  0  0  0  0  0
    0.1503   51.8095   73.4119 H   0  0  0  0  0  0  0  0  0  0  0  0
    1.6305   52.8272   73.4119 H   0  0  0  0  0  0  0  0  0  0  0  0
   -3.1393   65.5934   77.0589 H   0  0  0  0  0  0  0  0  0  0  0  0
   -2.2651   65.8002   75.5033 H   0  0  0  0  0  0  0  0  0  0  0  0
   -4.0047   65.3526   75.5033 H   0  0  0  0  0  0  0  0  0  0  0  0
    1.0774   58.9623   76.8733 H   0  0  0  0  0  0  0  0  0  0  0  0
    1.0243   55.8324   76.4656 H   0  0  0  0  0  0  0  0  0  0  0  0
    2.4326   55.0134   79.6576 H   0  0  0  0  0  0  0  0  0  0  0  0
    2.8772   55.0382   77.9065 H   0  0  0  0  0  0  0  0  0  0  0  0
    4.8624   55.2927   79.4277 H   0  0  0  0  0  0  0  0  0  0  0  0
    4.6199   56.6989   78.3259 H   0  0  0  0  0  0  0  0  0  0  0  0
    3.8083   56.5357   81.1949 H   0  0  0  0  0  0  0  0  0  0  0  0
    3.0513   58.8470   81.0445 H   0  0  0  0  0  0  0  0  0  0  0  0
    3.5108   58.8593   79.3078 H   0  0  0  0  0  0  0  0  0  0  0  0
    1.3831   57.0820   80.6269 H   0  0  0  0  0  0  0  0  0  0  0  0
    1.0950   58.4739   79.5132 H   0  0  0  0  0  0  0  0  0  0  0  0
    5.5921   57.6610   81.8479 H   0  0  0  0  0  0  0  0  0  0  0  0
    6.2726   56.9649   80.3383 H   0  0  0  0  0  0  0  0  0  0  0  0
    5.6093   58.6343   80.3383 H   0  0  0  0  0  0  0  0  0  0  0  0
    3.4759   58.8612   69.4573 H   0  0  0  0  0  0  0  0  0  0  0  0
    2.9733   56.7111   70.8268 H   0  0  0  0  0  0  0  0  0  0  0  0
   -0.3508   58.9856   78.8543 H   0  0  0  0  0  0  0  0  0  0  0  0
   -2.5605   57.1173   79.3381 H   0  0  0  0  0  0  0  0  0  0  0  0
    0.6693   62.7731   81.8661 H   0  0  0  0  0  0  0  0  0  0  0  0
    1.6244   62.5513   80.3610 H   0  0  0  0  0  0  0  0  0  0  0  0
    0.1847   63.6255   80.3610 H   0  0  0  0  0  0  0  0  0  0  0  0
  2  1  1  0
  3  2  2  0
  4  3  1  0
  5  4  1  0
  5  6  1  6
  7  5  1  0
  8  7  1  0
  9  8  2  0
 10  5  1  0
 10  9  1  0
 11 10  2  0
 12  9  1  0
 13 12  2  0
 14 13  1  0
 15 14  2  0
 16 15  1  0
 17 16  2  0
 17 12  1  0
 18 17  1  0
 19 18  2  0
 19  8  1  0
 20 19  1  0
 21 15  1  0
 22 21  1  0
 23 22  2  0
 24 22  1  0
 25 24  2  0
 26 25  1  0
 27 26  2  0
 28 27  1  0
 29 28  1  0
 30 29  1  0
 31 30  1  0
 32 31  1  0
 33 32  1  0
 34 33  1  0
 34  1  1  0
 35 34  1  0
 36 32  1  0
 37 30  1  0
 38 28  1  0
 39 24  1  0
 41 40  1  0
 41  1  1  0
 42 13  1  0
 43 14  1  0
 44 43  2  0
 45 44  1  0
 46 45  1  0
 47 46  1  0
 48 47  1  0
 49 48  1  0
 50 49  1  0
 50 45  1  0
 51 48  1  0
 52 18  1  0
 53 16  1  0
 54 31  1  0
 55 29  1  0
 56 33  1  0
 57 56  1  0
 58 57  2  0
 59 57  1  0
  1 60  1  6
  2 61  1  0
  3 62  1  0
  6 63  1  0
  6 64  1  0
  6 65  1  0
 20 66  1  0
 20 67  1  0
 20 68  1  0
 21 69  1  0
 25 70  1  0
 26 71  1  0
 27 72  1  0
 28 73  1  1
 29 74  1  6
 30 75  1  6
 31 76  1  1
 32 77  1  6
 33 78  1  1
 34 79  1  6
 35 80  1  0
 35 81  1  0
 35 82  1  0
 36 83  1  0
 36 84  1  0
 36 85  1  0
 37 86  1  0
 37 87  1  0
 37 88  1  0
 38 89  1  0
 38 90  1  0
 38 91  1  0
 39 92  1  0
 39 93  1  0
 39 94  1  0
 40 95  1  0
 40 96  1  0
 40 97  1  0
 42 98  1  0
 43 99  1  0
 46100  1  0
 46101  1  0
 47102  1  0
 47103  1  0
 48104  1  0
 49105  1  0
 49106  1  0
 50107  1  0
 50108  1  0
 51109  1  0
 51110  1  0
 51111  1  0
 52112  1  0
 53113  1  0
 54114  1  0
 55115  1  0
 59116  1  0
 59117  1  0
 59118  1  0
M  CHG  1  48   1
M  END
>  <score>  (2) 
-6.261

$$$$
=
     RDKit          3D

118122  0  0  0  0  0  0  0  0999 V2000
    3.4240   59.5440   71.5970 C   0  0  1  0  0  0  0  0  0  0  0  0
    3.3000   59.9160   70.1350 C   0  0  0  0  0  0  0  0  0  0  0  0
    2.7160   60.8860   69.4070 C   0  0  0  0  0  0  0  0  0  0  0  0
    2.0080   62.0160   69.6270 O   0  0  0  0  0  0  0  0  0  0  0  0
    1.8950   62.7490   70.8270 C   0  0  1  0  0  0  0  0  0  0  0  0
    3.2600   63.1630   71.3810 C   0  0  0  0  0  0  0  0  0  0  0  0
    1.2050   64.0220   70.5480 O   0  0  0  0  0  0  0  0  0  0  0  0
    0.4630   64.3150   71.6680 C   0  0  0  0  0  0  0  0  0  0  0  0
    0.2700   63.2460   72.5230 C   0  0  0  0  0  0  0  0  0  0  0  0
    0.9670   62.1540   71.8770 C   0  0  0  0  0  0  0  0  0  0  0  0
    0.7700   60.9830   72.1560 O   0  0  0  0  0  0  0  0  0  0  0  0
   -0.3890   63.3300   73.7620 C   0  0  0  0  0  0  0  0  0  0  0  0
   -0.6180   62.2450   74.6520 C   0  0  0  0  0  0  0  0  0  0  0  0
   -1.1470   62.4670   75.9230 C   0  0  0  0  0  0  0  0  0  0  0  0
   -1.3750   63.7590   76.3820 C   0  0  0  0  0  0  0  0  0  0  0  0
   -1.2940   64.8170   75.4790 C   0  0  0  0  0  0  0  0  0  0  0  0
   -0.8040   64.6410   74.1500 C   0  0  0  0  0  0  0  0  0  0  0  0
   -0.6450   65.7210   73.2140 C   0  0  0  0  0  0  0  0  0  0  0  0
   -0.0320   65.5730   71.9550 C   0  0  0  0  0  0  0  0  0  0  0  0
    0.1570   66.7110   70.9960 C   0  0  0  0  0  0  0  0  0  0  0  0
   -1.5690   64.0190   77.7690 N   0  0  0  0  0  0  0  0  0  0  0  0
   -0.5370   63.6100   78.6040 C   0  0  0  0  0  0  0  0  0  0  0  0
    0.5920   63.3590   78.1870 O   0  0  0  0  0  0  0  0  0  0  0  0
   -0.9200   63.4340   80.0400 C   0  0  0  0  0  0  0  0  0  0  0  0
   -0.4780   62.3560   80.7290 C   0  0  0  0  0  0  0  0  0  0  0  0
    0.3820   61.3040   80.2140 C   0  0  0  0  0  0  0  0  0  0  0  0
    1.7080   61.4650   80.0780 C   0  0  0  0  0  0  0  0  0  0  0  0
    2.7060   60.5770   79.3340 C   0  0  1  0  0  0  0  0  0  0  0  0
    2.0700   59.6830   78.2080 C   0  0  1  0  0  0  0  0  0  0  0  0
    3.0630   59.0630   77.1660 C   0  0  2  0  0  0  0  0  0  0  0  0
    2.3630   58.3670   75.9410 C   0  0  2  0  0  0  0  0  0  0  0  0
    3.1180   58.5170   74.5590 C   0  0  2  0  0  0  0  0  0  0  0  0
    2.2400   57.9700   73.3860 C   0  0  1  0  0  0  0  0  0  0  0  0
    2.6780   58.1980   71.8900 C   0  0  2  0  0  0  0  0  0  0  0  0
    3.4030   56.9680   71.2950 C   0  0  0  0  0  0  0  0  0  0  0  0
    4.4860   57.8360   74.6250 C   0  0  0  0  0  0  0  0  0  0  0  0
    4.0060   58.0740   77.8800 C   0  0  0  0  0  0  0  0  0  0  0  0
    3.8000   61.5020   78.7740 C   0  0  0  0  0  0  0  0  0  0  0  0
   -1.8310   64.4530   80.6480 C   0  0  0  0  0  0  0  0  0  0  0  0
    5.6350   60.4640   71.9070 C   0  0  0  0  0  0  0  0  0  0  0  0
    4.8140   59.3100   71.8650 O   0  0  0  0  0  0  0  0  0  0  0  0
   -0.2870   60.9430   74.3710 O   0  0  0  0  0  0  0  0  0  0  0  0
   -1.5410   61.3190   76.7510 C   0  0  0  0  0  0  0  0  0  0  0  0
   -2.3230   60.4090   76.2600 N   0  0  0  0  0  0  0  0  0  0  0  0
   -2.6000   59.3310   77.0760 N   0  0  0  0  0  0  0  0  0  0  0  0
   -3.7770   59.5670   77.9170 C   0  0  0  0  0  0  0  0  0  0  0  0
   -5.0690   59.4430   77.0950 C   0  0  0  0  0  0  0  0  0  0  0  0
   -5.1290   58.0820   76.3980 N   0  0  0  0  0  4  0  0  0  0  0  0
   -3.8650   57.8500   75.5430 C   0  0  0  0  0  0  0  0  0  0  0  0
   -2.6160   58.0070   76.4220 C   0  0  0  0  0  0  0  0  0  0  0  0
   -6.3670   57.9360   75.5730 C   0  0  0  0  0  0  0  0  0  0  0  0
   -1.0970   66.9610   73.6180 O   0  0  0  0  0  0  0  0  0  0  0  0
   -1.6280   66.0580   75.9750 O   0  0  0  0  0  0  0  0  0  0  0  0
    1.0300   58.8550   75.7750 O   0  0  0  0  0  0  0  0  0  0  0  0
    1.3140   58.6130   78.8060 O   0  0  0  0  0  0  0  0  0  0  0  0
    2.0660   56.5470   73.6220 O   0  0  0  0  0  0  0  0  0  0  0  0
    0.8200   56.0580   73.8250 C   0  0  0  0  0  0  0  0  0  0  0  0
   -0.2240   56.6970   73.8440 O   0  0  0  0  0  0  0  0  0  0  0  0
    0.8960   54.5790   74.0550 C   0  0  0  0  0  0  0  0  0  0  0  0
    2.9976   60.3504   72.2118 H   0  0  0  0  0  0  0  0  0  0  0  0
    3.8318   59.1985   69.4928 H   0  0  0  0  0  0  0  0  0  0  0  0
    2.8538   60.7092   68.3301 H   0  0  0  0  0  0  0  0  0  0  0  0
    3.2278   63.1532   72.4805 H   0  0  0  0  0  0  0  0  0  0  0  0
    4.0274   62.4572   71.0304 H   0  0  0  0  0  0  0  0  0  0  0  0
    3.5061   64.1762   71.0304 H   0  0  0  0  0  0  0  0  0  0  0  0
    0.3118   67.6432   71.5591 H   0  0  0  0  0  0  0  0  0  0  0  0
    1.0349   66.5150   70.3628 H   0  0  0  0  0  0  0  0  0  0  0  0
   -0.7371   66.8093   70.3628 H   0  0  0  0  0  0  0  0  0  0  0  0
   -2.4174   64.4793   78.1286 H   0  0  0  0  0  0  0  0  0  0  0  0
   -0.8000   62.2681   81.7771 H   0  0  0  0  0  0  0  0  0  0  0  0
   -0.0687   60.3429   79.9257 H   0  0  0  0  0  0  0  0  0  0  0  0
    2.1330   62.3540   80.5669 H   0  0  0  0  0  0  0  0  0  0  0  0
    3.1192   59.8445   80.0430 H   0  0  0  0  0  0  0  0  0  0  0  0
    1.4412   60.3813   77.6363 H   0  0  0  0  0  0  0  0  0  0  0  0
    3.6324   59.9023   76.7401 H   0  0  0  0  0  0  0  0  0  0  0  0
    2.3758   57.2975   76.1980 H   0  0  0  0  0  0  0  0  0  0  0  0
    3.2911   59.5847   74.3589 H   0  0  0  0  0  0  0  0  0  0  0  0
    1.3286   58.5841   73.4331 H   0  0  0  0  0  0  0  0  0  0  0  0
    1.7262   58.3132   71.3507 H   0  0  0  0  0  0  0  0  0  0  0  0
    3.7774   56.3328   72.1112 H   0  0  0  0  0  0  0  0  0  0  0  0
    2.6998   56.3922   70.6753 H   0  0  0  0  0  0  0  0  0  0  0  0
    4.2473   57.3043   70.6753 H   0  0  0  0  0  0  0  0  0  0  0  0
    4.7739   57.6927   75.6769 H   0  0  0  0  0  0  0  0  0  0  0  0
    4.4337   56.8587   74.1228 H   0  0  0  0  0  0  0  0  0  0  0  0
    5.2342   58.4668   74.1228 H   0  0  0  0  0  0  0  0  0  0  0  0
    3.8988   58.1864   78.9690 H   0  0  0  0  0  0  0  0  0  0  0  0
    3.7460   57.0452   77.5902 H   0  0  0  0  0  0  0  0  0  0  0  0
    5.0460   58.2848   77.5902 H   0  0  0  0  0  0  0  0  0  0  0  0
    4.3491   61.9663   79.6064 H   0  0  0  0  0  0  0  0  0  0  0  0
    4.4965   60.9148   78.1575 H   0  0  0  0  0  0  0  0  0  0  0  0
    3.3367   62.2865   78.1575 H   0  0  0  0  0  0  0  0  0  0  0  0
   -1.7734   64.3885   81.7446 H   0  0  0  0  0  0  0  0  0  0  0  0
   -1.5252   65.4585   80.3232 H   0  0  0  0  0  0  0  0  0  0  0  0
   -2.8643   64.2613   80.3232 H   0  0  0  0  0  0  0  0  0  0  0  0
    5.8296   60.7376   72.9545 H   0  0  0  0  0  0  0  0  0  0  0  0
    6.5882   60.2545   71.3996 H   0  0  0  0  0  0  0  0  0  0  0  0
    5.1245   61.2958   71.3996 H   0  0  0  0  0  0  0  0  0  0  0  0
   -0.4725   60.2311   75.0335 H   0  0  0  0  0  0  0  0  0  0  0  0
   -1.1736   61.2319   77.7842 H   0  0  0  0  0  0  0  0  0  0  0  0
   -3.7941   58.8257   78.7295 H   0  0  0  0  0  0  0  0  0  0  0  0
   -3.7176   60.5853   78.3287 H   0  0  0  0  0  0  0  0  0  0  0  0
   -5.9358   59.5460   77.7644 H   0  0  0  0  0  0  0  0  0  0  0  0
   -5.0843   60.2355   76.3323 H   0  0  0  0  0  0  0  0  0  0  0  0
   -5.1627   57.3591   77.1309 H   0  0  0  0  0  0  0  0  0  0  0  0
   -3.8901   56.8351   75.1196 H   0  0  0  0  0  0  0  0  0  0  0  0
   -3.8340   58.5872   74.7272 H   0  0  0  0  0  0  0  0  0  0  0  0
   -2.6169   57.2232   77.1938 H   0  0  0  0  0  0  0  0  0  0  0  0
   -1.7229   57.9162   75.7863 H   0  0  0  0  0  0  0  0  0  0  0  0
   -7.2391   57.8332   76.2355 H   0  0  0  0  0  0  0  0  0  0  0  0
   -6.4916   58.8257   74.9382 H   0  0  0  0  0  0  0  0  0  0  0  0
   -6.2813   57.0417   74.9382 H   0  0  0  0  0  0  0  0  0  0  0  0
   -1.0124   67.7400   73.0129 H   0  0  0  0  0  0  0  0  0  0  0  0
   -1.5917   66.8527   75.3858 H   0  0  0  0  0  0  0  0  0  0  0  0
    0.6204   59.0049   76.6637 H   0  0  0  0  0  0  0  0  0  0  0  0
    1.3644   58.6844   79.7921 H   0  0  0  0  0  0  0  0  0  0  0  0
    0.9064   54.3761   75.1361 H   0  0  0  0  0  0  0  0  0  0  0  0
    0.0217   54.0916   73.5989 H   0  0  0  0  0  0  0  0  0  0  0  0
    1.8156   54.1838   73.5989 H   0  0  0  0  0  0  0  0  0  0  0  0
  2  1  1  0
  3  2  2  0
  4  3  1  0
  5  4  1  0
  5  6  1  1
  7  5  1  0
  8  7  1  0
  9  8  2  0
 10  5  1  0
 10  9  1  0
 11 10  2  0
 12  9  1  0
 13 12  2  0
 14 13  1  0
 15 14  2  0
 16 15  1  0
 17 16  2  0
 17 12  1  0
 18 17  1  0
 19 18  2  0
 19  8  1  0
 20 19  1  0
 21 15  1  0
 22 21  1  0
 23 22  2  0
 24 22  1  0
 25 24  2  0
 26 25  1  0
 27 26  2  0
 28 27  1  0
 29 28  1  0
 30 29  1  0
 31 30  1  0
 32 31  1  0
 33 32  1  0
 34 33  1  0
 34  1  1  0
 35 34  1  0
 36 32  1  0
 37 30  1  0
 38 28  1  0
 39 24  1  0
 41 40  1  0
 41  1  1  0
 42 13  1  0
 43 14  1  0
 44 43  2  0
 45 44  1  0
 46 45  1  0
 47 46  1  0
 48 47  1  0
 49 48  1  0
 50 49  1  0
 50 45  1  0
 51 48  1  0
 52 18  1  0
 53 16  1  0
 54 31  1  0
 55 29  1  0
 56 33  1  0
 57 56  1  0
 58 57  2  0
 59 57  1  0
  1 60  1  1
  2 61  1  0
  3 62  1  0
  6 63  1  0
  6 64  1  0
  6 65  1  0
 20 66  1  0
 20 67  1  0
 20 68  1  0
 21 69  1  0
 25 70  1  0
 26 71  1  0
 27 72  1  0
 28 73  1  1
 29 74  1  6
 30 75  1  6
 31 76  1  1
 32 77  1  6
 33 78  1  6
 34 79  1  6
 35 80  1  0
 35 81  1  0
 35 82  1  0
 36 83  1  0
 36 84  1  0
 36 85  1  0
 37 86  1  0
 37 87  1  0
 37 88  1  0
 38 89  1  0
 38 90  1  0
 38 91  1  0
 39 92  1  0
 39 93  1  0
 39 94  1  0
 40 95  1  0
 40 96  1  0
 40 97  1  0
 42 98  1  0
 43 99  1  0
 46100  1  0
 46101  1  0
 47102  1  0
 47103  1  0
 48104  1  0
 49105  1  0
 49106  1  0
 50107  1  0
 50108  1  0
 51109  1  0
 51110  1  0
 51111  1  0
 52112  1  0
 53113  1  0
 54114  1  0
 55115  1  0
 59116  1  0
 59117  1  0
 59118  1  0
M  CHG  1  48   1
M  END
>  <score>  (3) 
-6.059

$$$$
=
     RDKit          3D

118122  0  0  0  0  0  0  0  0999 V2000
   -8.6360   59.3390   77.4970 C   0  0  1  0  0  0  0  0  0  0  0  0
   -9.3740   58.0290   77.3140 C   0  0  0  0  0  0  0  0  0  0  0  0
   -9.0700   56.7180   77.2910 C   0  0  0  0  0  0  0  0  0  0  0  0
   -7.9810   55.9380   77.4700 O   0  0  0  0  0  0  0  0  0  0  0  0
   -6.7560   56.2840   78.0770 C   0  0  1  0  0  0  0  0  0  0  0  0
   -6.9480   56.8240   79.4970 C   0  0  0  0  0  0  0  0  0  0  0  0
   -5.9450   55.0650   78.2500 O   0  0  0  0  0  0  0  0  0  0  0  0
   -4.6330   55.4450   78.0920 C   0  0  0  0  0  0  0  0  0  0  0  0
   -4.4630   56.6750   77.4830 C   0  0  0  0  0  0  0  0  0  0  0  0
   -5.8150   57.1270   77.2280 C   0  0  0  0  0  0  0  0  0  0  0  0
   -6.0810   58.0120   76.4330 O   0  0  0  0  0  0  0  0  0  0  0  0
   -3.2180   57.2980   77.2880 C   0  0  0  0  0  0  0  0  0  0  0  0
   -3.0120   58.5530   76.6490 C   0  0  0  0  0  0  0  0  0  0  0  0
   -1.7520   59.1500   76.6440 C   0  0  0  0  0  0  0  0  0  0  0  0
   -0.6930   58.5800   77.3410 C   0  0  0  0  0  0  0  0  0  0  0  0
   -0.8380   57.2900   77.8470 C   0  0  0  0  0  0  0  0  0  0  0  0
   -2.0930   56.6100   77.8370 C   0  0  0  0  0  0  0  0  0  0  0  0
   -2.2930   55.3060   78.4090 C   0  0  0  0  0  0  0  0  0  0  0  0
   -3.5560   54.6950   78.5260 C   0  0  0  0  0  0  0  0  0  0  0  0
   -3.7610   53.3470   79.1510 C   0  0  0  0  0  0  0  0  0  0  0  0
    0.4760   59.3360   77.6420 N   0  0  0  0  0  0  0  0  0  0  0  0
    0.2640   60.5010   78.3700 C   0  0  0  0  0  0  0  0  0  0  0  0
   -0.7710   60.7070   79.0020 O   0  0  0  0  0  0  0  0  0  0  0  0
    1.3620   61.5140   78.2740 C   0  0  0  0  0  0  0  0  0  0  0  0
    1.0590   62.8230   78.1150 C   0  0  0  0  0  0  0  0  0  0  0  0
   -0.2760   63.3900   78.0370 C   0  0  0  0  0  0  0  0  0  0  0  0
   -1.0330   63.5920   79.1280 C   0  0  0  0  0  0  0  0  0  0  0  0
   -2.5220   63.9350   79.2060 C   0  0  1  0  0  0  0  0  0  0  0  0
   -3.3540   63.5180   77.9400 C   0  0  1  0  0  0  0  0  0  0  0  0
   -4.9110   63.4770   78.1120 C   0  0  2  0  0  0  0  0  0  0  0  0
   -5.6810   62.8430   76.8950 C   0  0  2  0  0  0  0  0  0  0  0  0
   -6.9620   61.9980   77.2730 C   0  0  2  0  0  0  0  0  0  0  0  0
   -7.5250   61.2510   76.0190 C   0  0  1  0  0  0  0  0  0  0  0  0
   -8.6690   60.1810   76.1760 C   0  0  2  0  0  0  0  0  0  0  0  0
  -10.0680   60.7640   75.8710 C   0  0  0  0  0  0  0  0  0  0  0  0
   -8.0120   62.8930   77.9340 C   0  0  0  0  0  0  0  0  0  0  0  0
   -5.4350   64.8980   78.3980 C   0  0  0  0  0  0  0  0  0  0  0  0
   -3.0660   63.2780   80.4860 C   0  0  0  0  0  0  0  0  0  0  0  0
    2.7730   61.0170   78.3120 C   0  0  0  0  0  0  0  0  0  0  0  0
   -9.0240   59.8070   79.8340 C   0  0  0  0  0  0  0  0  0  0  0  0
   -9.3470   60.0980   78.4850 O   0  0  0  0  0  0  0  0  0  0  0  0
   -4.0140   59.2850   76.0630 O   0  0  0  0  0  0  0  0  0  0  0  0
   -1.5260   60.3500   75.8280 C   0  0  0  0  0  0  0  0  0  0  0  0
   -0.7210   60.2960   74.8120 N   0  0  0  0  0  0  0  0  0  0  0  0
   -0.6060   61.4460   74.0570 N   0  0  0  0  0  0  0  0  0  0  0  0
    0.2580   62.4390   74.7000 C   0  0  0  0  0  0  0  0  0  0  0  0
    1.7370   62.0460   74.5640 C   0  0  0  0  0  0  0  0  0  0  0  0
    2.1010   61.8390   73.0930 N   0  0  0  0  0  4  0  0  0  0  0  0
    1.1570   60.8090   72.4360 C   0  0  0  0  0  0  0  0  0  0  0  0
   -0.3000   61.2550   72.6250 C   0  0  0  0  0  0  0  0  0  0  0  0
    3.5310   61.4360   72.9270 C   0  0  0  0  0  0  0  0  0  0  0  0
   -1.1700   54.6630   78.8900 O   0  0  0  0  0  0  0  0  0  0  0  0
    0.2820   56.7470   78.4390 O   0  0  0  0  0  0  0  0  0  0  0  0
   -4.8110   62.0110   76.1240 O   0  0  0  0  0  0  0  0  0  0  0  0
   -3.0420   64.3960   76.8420 O   0  0  0  0  0  0  0  0  0  0  0  0
   -7.9530   62.2750   75.0810 O   0  0  0  0  0  0  0  0  0  0  0  0
   -7.8270   62.0490   73.7520 C   0  0  0  0  0  0  0  0  0  0  0  0
   -7.2070   61.1380   73.2200 O   0  0  0  0  0  0  0  0  0  0  0  0
   -8.5570   63.1160   72.9940 C   0  0  0  0  0  0  0  0  0  0  0  0
   -7.5945   59.1298   77.7824 H   0  0  0  0  0  0  0  0  0  0  0  0
  -10.4503   58.1937   77.1574 H   0  0  0  0  0  0  0  0  0  0  0  0
   -9.9579   56.1104   77.0620 H   0  0  0  0  0  0  0  0  0  0  0  0
   -6.6718   56.0472   80.2252 H   0  0  0  0  0  0  0  0  0  0  0  0
   -6.3088   57.7073   79.6429 H   0  0  0  0  0  0  0  0  0  0  0  0
   -8.0013   57.1055   79.6429 H   0  0  0  0  0  0  0  0  0  0  0  0
   -3.7461   53.4447   80.2466 H   0  0  0  0  0  0  0  0  0  0  0  0
   -4.7315   52.9389   78.8324 H   0  0  0  0  0  0  0  0  0  0  0  0
   -2.9557   52.6688   78.8324 H   0  0  0  0  0  0  0  0  0  0  0  0
    1.4152   59.0394   77.3405 H   0  0  0  0  0  0  0  0  0  0  0  0
    1.9032   63.5239   78.0375 H   0  0  0  0  0  0  0  0  0  0  0  0
   -0.6807   63.6632   77.0513 H   0  0  0  0  0  0  0  0  0  0  0  0
   -0.5137   63.4984   80.0932 H   0  0  0  0  0  0  0  0  0  0  0  0
   -2.6295   65.0293   79.2353 H   0  0  0  0  0  0  0  0  0  0  0  0
   -3.0507   62.4774   77.7524 H   0  0  0  0  0  0  0  0  0  0  0  0
   -5.1117   62.8110   78.9642 H   0  0  0  0  0  0  0  0  0  0  0  0
   -6.0310   63.7121   76.3187 H   0  0  0  0  0  0  0  0  0  0  0  0
   -6.6789   61.2265   78.0042 H   0  0  0  0  0  0  0  0  0  0  0  0
   -6.6879   60.6150   75.6952 H   0  0  0  0  0  0  0  0  0  0  0  0
   -8.4444   59.4388   75.3958 H   0  0  0  0  0  0  0  0  0  0  0  0
  -10.5887   60.9810   76.8154 H   0  0  0  0  0  0  0  0  0  0  0  0
   -9.9599   61.6920   75.2903 H   0  0  0  0  0  0  0  0  0  0  0  0
  -10.6509   60.0339   75.2903 H   0  0  0  0  0  0  0  0  0  0  0  0
   -7.9226   62.8168   79.0277 H   0  0  0  0  0  0  0  0  0  0  0  0
   -7.8515   63.9364   77.6248 H   0  0  0  0  0  0  0  0  0  0  0  0
   -9.0168   62.5693   77.6248 H   0  0  0  0  0  0  0  0  0  0  0  0
   -5.4931   65.0555   79.4851 H   0  0  0  0  0  0  0  0  0  0  0  0
   -4.7503   65.6371   77.9565 H   0  0  0  0  0  0  0  0  0  0  0  0
   -6.4356   65.0156   77.9565 H   0  0  0  0  0  0  0  0  0  0  0  0
   -2.6453   63.7861   81.3662 H   0  0  0  0  0  0  0  0  0  0  0  0
   -4.1627   63.3618   80.5036 H   0  0  0  0  0  0  0  0  0  0  0  0
   -2.7791   62.2162   80.5036 H   0  0  0  0  0  0  0  0  0  0  0  0
    3.0939   60.9040   79.3581 H   0  0  0  0  0  0  0  0  0  0  0  0
    2.8328   60.0437   77.8029 H   0  0  0  0  0  0  0  0  0  0  0  0
    3.4295   61.7380   77.8029 H   0  0  0  0  0  0  0  0  0  0  0  0
   -9.6738   60.3924   80.5011 H   0  0  0  0  0  0  0  0  0  0  0  0
   -9.1749   58.7341   80.0239 H   0  0  0  0  0  0  0  0  0  0  0  0
   -7.9726   60.0686   80.0239 H   0  0  0  0  0  0  0  0  0  0  0  0
   -3.8069   60.1526   75.6335 H   0  0  0  0  0  0  0  0  0  0  0  0
   -2.0375   61.2914   76.0774 H   0  0  0  0  0  0  0  0  0  0  0  0
    0.0996   63.4175   74.2230 H   0  0  0  0  0  0  0  0  0  0  0  0
    0.0034   62.4881   75.7690 H   0  0  0  0  0  0  0  0  0  0  0  0
    2.3646   62.8461   74.9835 H   0  0  0  0  0  0  0  0  0  0  0  0
    1.9079   61.1061   75.1094 H   0  0  0  0  0  0  0  0  0  0  0  0
    1.9802   62.7426   72.6136 H   0  0  0  0  0  0  0  0  0  0  0  0
    1.3823   60.7385   71.3616 H   0  0  0  0  0  0  0  0  0  0  0  0
    1.3030   59.8257   72.9070 H   0  0  0  0  0  0  0  0  0  0  0  0
   -0.4591   62.2040   72.0921 H   0  0  0  0  0  0  0  0  0  0  0  0
   -0.9635   60.4753   72.2226 H   0  0  0  0  0  0  0  0  0  0  0  0
    3.9926   61.3059   73.9170 H   0  0  0  0  0  0  0  0  0  0  0  0
    3.5827   60.4883   72.3709 H   0  0  0  0  0  0  0  0  0  0  0  0
    4.0699   62.2172   72.3709 H   0  0  0  0  0  0  0  0  0  0  0  0
   -1.2500   53.7629   79.2943 H   0  0  0  0  0  0  0  0  0  0  0  0
    0.2474   55.8335   78.8191 H   0  0  0  0  0  0  0  0  0  0  0  0
   -4.2463   61.4710   76.7320 H   0  0  0  0  0  0  0  0  0  0  0  0
   -2.7322   65.2678   77.1943 H   0  0  0  0  0  0  0  0  0  0  0  0
   -9.0318   63.8100   73.7032 H   0  0  0  0  0  0  0  0  0  0  0  0
   -7.8462   63.6677   72.3612 H   0  0  0  0  0  0  0  0  0  0  0  0
   -9.3288   62.6535   72.3612 H   0  0  0  0  0  0  0  0  0  0  0  0
  2  1  1  0
  3  2  2  0
  4  3  1  0
  5  4  1  0
  5  6  1  1
  7  5  1  0
  8  7  1  0
  9  8  2  0
 10  5  1  0
 10  9  1  0
 11 10  2  0
 12  9  1  0
 13 12  2  0
 14 13  1  0
 15 14  2  0
 16 15  1  0
 17 16  2  0
 17 12  1  0
 18 17  1  0
 19 18  2  0
 19  8  1  0
 20 19  1  0
 21 15  1  0
 22 21  1  0
 23 22  2  0
 24 22  1  0
 25 24  2  0
 26 25  1  0
 27 26  2  0
 28 27  1  0
 29 28  1  0
 30 29  1  0
 31 30  1  0
 32 31  1  0
 33 32  1  0
 34 33  1  0
 34  1  1  0
 35 34  1  0
 36 32  1  0
 37 30  1  0
 38 28  1  0
 39 24  1  0
 41 40  1  0
 41  1  1  0
 42 13  1  0
 43 14  1  0
 44 43  2  0
 45 44  1  0
 46 45  1  0
 47 46  1  0
 48 47  1  0
 49 48  1  0
 50 49  1  0
 50 45  1  0
 51 48  1  0
 52 18  1  0
 53 16  1  0
 54 31  1  0
 55 29  1  0
 56 33  1  0
 57 56  1  0
 58 57  2  0
 59 57  1  0
  1 60  1  1
  2 61  1  0
  3 62  1  0
  6 63  1  0
  6 64  1  0
  6 65  1  0
 20 66  1  0
 20 67  1  0
 20 68  1  0
 21 69  1  0
 25 70  1  0
 26 71  1  0
 27 72  1  0
 28 73  1  1
 29 74  1  6
 30 75  1  1
 31 76  1  6
 32 77  1  1
 33 78  1  6
 34 79  1  6
 35 80  1  0
 35 81  1  0
 35 82  1  0
 36 83  1  0
 36 84  1  0
 36 85  1  0
 37 86  1  0
 37 87  1  0
 37 88  1  0
 38 89  1  0
 38 90  1  0
 38 91  1  0
 39 92  1  0
 39 93  1  0
 39 94  1  0
 40 95  1  0
 40 96  1  0
 40 97  1  0
 42 98  1  0
 43 99  1  0
 46100  1  0
 46101  1  0
 47102  1  0
 47103  1  0
 48104  1  0
 49105  1  0
 49106  1  0
 50107  1  0
 50108  1  0
 51109  1  0
 51110  1  0
 51111  1  0
 52112  1  0
 53113  1  0
 54114  1  0
 55115  1  0
 59116  1  0
 59117  1  0
 59118  1  0
M  CHG  1  48   1
M  END
>  <score>  (4) 
-5.755

$$$$
=
     RDKit          3D

118122  0  0  0  0  0  0  0  0999 V2000
    0.6100   61.2590   74.2970 C   0  0  1  0  0  0  0  0  0  0  0  0
   -0.1870   62.0670   73.2950 C   0  0  0  0  0  0  0  0  0  0  0  0
   -1.4680   62.1540   72.8900 C   0  0  0  0  0  0  0  0  0  0  0  0
   -2.6610   61.6080   73.2110 O   0  0  0  0  0  0  0  0  0  0  0  0
   -3.0060   60.9090   74.3860 C   0  0  1  0  0  0  0  0  0  0  0  0
   -2.7270   61.7280   75.6490 C   0  0  0  0  0  0  0  0  0  0  0  0
   -4.4650   60.6880   74.4020 O   0  0  0  0  0  0  0  0  0  0  0  0
   -4.6670   59.4760   75.0200 C   0  0  0  0  0  0  0  0  0  0  0  0
   -3.5390   58.6800   75.1020 C   0  0  0  0  0  0  0  0  0  0  0  0
   -2.5070   59.4730   74.4700 C   0  0  0  0  0  0  0  0  0  0  0  0
   -1.4560   58.9990   74.0690 O   0  0  0  0  0  0  0  0  0  0  0  0
   -3.4930   57.4360   75.7570 C   0  0  0  0  0  0  0  0  0  0  0  0
   -2.3530   56.5890   75.8410 C   0  0  0  0  0  0  0  0  0  0  0  0
   -2.3730   55.4490   76.6440 C   0  0  0  0  0  0  0  0  0  0  0  0
   -3.4700   55.1660   77.4500 C   0  0  0  0  0  0  0  0  0  0  0  0
   -4.6410   55.9000   77.2720 C   0  0  0  0  0  0  0  0  0  0  0  0
   -4.6930   57.0480   76.4270 C   0  0  0  0  0  0  0  0  0  0  0  0
   -5.8660   57.8660   76.2720 C   0  0  0  0  0  0  0  0  0  0  0  0
   -5.8790   59.0760   75.5510 C   0  0  0  0  0  0  0  0  0  0  0  0
   -7.0980   59.9390   75.4190 C   0  0  0  0  0  0  0  0  0  0  0  0
   -3.3700   54.2310   78.5190 N   0  0  0  0  0  0  0  0  0  0  0  0
   -2.3960   54.5110   79.4700 C   0  0  0  0  0  0  0  0  0  0  0  0
   -1.8900   55.6250   79.5910 O   0  0  0  0  0  0  0  0  0  0  0  0
   -1.9620   53.3390   80.2930 C   0  0  0  0  0  0  0  0  0  0  0  0
   -0.6480   53.1470   80.5530 C   0  0  0  0  0  0  0  0  0  0  0  0
    0.4450   53.9980   80.1160 C   0  0  0  0  0  0  0  0  0  0  0  0
    0.7370   55.1590   80.7260 C   0  0  0  0  0  0  0  0  0  0  0  0
    1.6680   56.2770   80.2550 C   0  0  1  0  0  0  0  0  0  0  0  0
    1.9100   56.3130   78.7020 C   0  0  1  0  0  0  0  0  0  0  0  0
    2.5140   57.6370   78.1220 C   0  0  2  0  0  0  0  0  0  0  0  0
    2.5290   57.7070   76.5500 C   0  0  2  0  0  0  0  0  0  0  0  0
    2.2670   59.1400   75.9360 C   0  0  2  0  0  0  0  0  0  0  0  0
    2.1000   59.0570   74.3830 C   0  0  1  0  0  0  0  0  0  0  0  0
    1.6230   60.3150   73.5650 C   0  0  2  0  0  0  0  0  0  0  0  0
    2.8020   61.0820   72.9240 C   0  0  0  0  0  0  0  0  0  0  0  0
    3.3800   60.1050   76.3490 C   0  0  0  0  0  0  0  0  0  0  0  0
    3.9360   57.8420   78.6820 C   0  0  0  0  0  0  0  0  0  0  0  0
    1.0750   57.6000   80.7680 C   0  0  0  0  0  0  0  0  0  0  0  0
   -3.0180   52.3870   80.7610 C   0  0  0  0  0  0  0  0  0  0  0  0
    0.6570   63.0750   75.8880 C   0  0  0  0  0  0  0  0  0  0  0  0
    1.3910   62.1810   75.0690 O   0  0  0  0  0  0  0  0  0  0  0  0
   -1.1600   56.8480   75.2150 O   0  0  0  0  0  0  0  0  0  0  0  0
   -1.2560   54.4980   76.5740 C   0  0  0  0  0  0  0  0  0  0  0  0
   -1.4810   53.2620   76.2560 N   0  0  0  0  0  0  0  0  0  0  0  0
   -0.3740   52.4420   76.1510 N   0  0  0  0  0  0  0  0  0  0  0  0
   -0.2660   51.8340   74.8220 C   0  0  0  0  0  0  0  0  0  0  0  0
    0.2330   52.8590   73.7910 C   0  0  0  0  0  0  0  0  0  0  0  0
    1.5570   53.4730   74.2480 N   0  0  0  0  0  4  0  0  0  0  0  0
    1.4200   54.0800   75.6600 C   0  0  0  0  0  0  0  0  0  0  0  0
    0.9020   53.0090   76.6310 C   0  0  0  0  0  0  0  0  0  0  0  0
    2.0610   54.4900   73.2750 C   0  0  0  0  0  0  0  0  0  0  0  0
   -7.0120   57.4300   76.9050 O   0  0  0  0  0  0  0  0  0  0  0  0
   -5.7200   55.5030   78.0320 O   0  0  0  0  0  0  0  0  0  0  0  0
    1.5710   56.8030   75.9940 O   0  0  0  0  0  0  0  0  0  0  0  0
    2.7620   55.2170   78.3180 O   0  0  0  0  0  0  0  0  0  0  0  0
    3.3700   58.5930   73.8520 O   0  0  0  0  0  0  0  0  0  0  0  0
    3.4620   58.2800   72.5370 C   0  0  0  0  0  0  0  0  0  0  0  0
    4.3420   58.6290   71.7610 O   0  0  0  0  0  0  0  0  0  0  0  0
    2.2850   57.4400   72.1420 C   0  0  0  0  0  0  0  0  0  0  0  0
   -0.0810   60.6626   74.9109 H   0  0  0  0  0  0  0  0  0  0  0  0
    0.4546   62.7751   72.7500 H   0  0  0  0  0  0  0  0  0  0  0  0
   -1.5727   62.8731   72.0642 H   0  0  0  0  0  0  0  0  0  0  0  0
   -2.9361   61.1143   76.5376 H   0  0  0  0  0  0  0  0  0  0  0  0
   -1.6721   62.0395   75.6584 H   0  0  0  0  0  0  0  0  0  0  0  0
   -3.3724   62.6187   75.6584 H   0  0  0  0  0  0  0  0  0  0  0  0
   -7.4706   60.2028   76.4198 H   0  0  0  0  0  0  0  0  0  0  0  0
   -6.8399   60.8567   74.8702 H   0  0  0  0  0  0  0  0  0  0  0  0
   -7.8778   59.3906   74.8702 H   0  0  0  0  0  0  0  0  0  0  0  0
   -3.9787   53.4026   78.5833 H   0  0  0  0  0  0  0  0  0  0  0  0
   -0.3826   52.2632   81.1517 H   0  0  0  0  0  0  0  0  0  0  0  0
    1.0542   53.6813   79.2566 H   0  0  0  0  0  0  0  0  0  0  0  0
    0.2403   55.3278   81.6928 H   0  0  0  0  0  0  0  0  0  0  0  0
    2.6711   56.0955   80.6683 H   0  0  0  0  0  0  0  0  0  0  0  0
    0.9005   56.2378   78.2716 H   0  0  0  0  0  0  0  0  0  0  0  0
    1.8484   58.4508   78.4456 H   0  0  0  0  0  0  0  0  0  0  0  0
    3.5581   57.4274   76.2801 H   0  0  0  0  0  0  0  0  0  0  0  0
    1.3223   59.5349   76.3378 H   0  0  0  0  0  0  0  0  0  0  0  0
    1.2416   58.3828   74.2465 H   0  0  0  0  0  0  0  0  0  0  0  0
    1.0245   59.8865   72.7476 H   0  0  0  0  0  0  0  0  0  0  0  0
    3.4422   61.4985   73.7157 H   0  0  0  0  0  0  0  0  0  0  0  0
    3.3912   60.3938   72.3001 H   0  0  0  0  0  0  0  0  0  0  0  0
    2.4117   61.8995   72.3001 H   0  0  0  0  0  0  0  0  0  0  0  0
    3.4352   60.1529   77.4466 H   0  0  0  0  0  0  0  0  0  0  0  0
    4.3409   59.7494   75.9487 H   0  0  0  0  0  0  0  0  0  0  0  0
    3.1642   61.1066   75.9487 H   0  0  0  0  0  0  0  0  0  0  0  0
    3.9013   57.8370   79.7814 H   0  0  0  0  0  0  0  0  0  0  0  0
    4.5887   57.0287   78.3320 H   0  0  0  0  0  0  0  0  0  0  0  0
    4.3324   58.8066   78.3320 H   0  0  0  0  0  0  0  0  0  0  0  0
    1.0751   57.5997   81.8680 H   0  0  0  0  0  0  0  0  0  0  0  0
    1.6824   58.4406   80.4015 H   0  0  0  0  0  0  0  0  0  0  0  0
    0.0433   57.7059   80.4015 H   0  0  0  0  0  0  0  0  0  0  0  0
   -3.0358   52.3709   81.8607 H   0  0  0  0  0  0  0  0  0  0  0  0
   -3.9985   52.7123   80.3831 H   0  0  0  0  0  0  0  0  0  0  0  0
   -2.7957   51.3781   80.3831 H   0  0  0  0  0  0  0  0  0  0  0  0
    0.8474   62.8431   76.9463 H   0  0  0  0  0  0  0  0  0  0  0  0
    0.9711   64.1078   75.6767 H   0  0  0  0  0  0  0  0  0  0  0  0
   -0.4172   62.9680   75.6767 H   0  0  0  0  0  0  0  0  0  0  0  0
   -0.4027   56.2179   75.3128 H   0  0  0  0  0  0  0  0  0  0  0  0
   -0.2312   54.8339   76.7909 H   0  0  0  0  0  0  0  0  0  0  0  0
    0.4422   50.9935   74.8666 H   0  0  0  0  0  0  0  0  0  0  0  0
   -1.2612   51.4807   74.5143 H   0  0  0  0  0  0  0  0  0  0  0  0
    0.3810   52.3573   72.8233 H   0  0  0  0  0  0  0  0  0  0  0  0
   -0.5158   53.6586   73.6914 H   0  0  0  0  0  0  0  0  0  0  0  0
    2.2533   52.7150   74.2870 H   0  0  0  0  0  0  0  0  0  0  0  0
    2.4020   54.4397   76.0011 H   0  0  0  0  0  0  0  0  0  0  0  0
    0.7111   54.9206   75.6300 H   0  0  0  0  0  0  0  0  0  0  0  0
    1.6472   52.2039   76.7115 H   0  0  0  0  0  0  0  0  0  0  0  0
    0.7347   53.4741   77.6137 H   0  0  0  0  0  0  0  0  0  0  0  0
    2.4843   55.3442   73.8237 H   0  0  0  0  0  0  0  0  0  0  0  0
    2.8395   54.0382   72.6427 H   0  0  0  0  0  0  0  0  0  0  0  0
    1.2300   54.8359   72.6427 H   0  0  0  0  0  0  0  0  0  0  0  0
   -7.8482   57.9548   76.8316 H   0  0  0  0  0  0  0  0  0  0  0  0
   -6.5831   55.9817   77.9544 H   0  0  0  0  0  0  0  0  0  0  0  0
    1.0859   56.3452   76.7256 H   0  0  0  0  0  0  0  0  0  0  0  0
    3.1099   54.7694   79.1296 H   0  0  0  0  0  0  0  0  0  0  0  0
    1.7747   57.0758   73.0458 H   0  0  0  0  0  0  0  0  0  0  0  0
    1.5866   58.0450   71.5452 H   0  0  0  0  0  0  0  0  0  0  0  0
    2.6301   56.5828   71.5452 H   0  0  0  0  0  0  0  0  0  0  0  0
  2  1  1  0
  3  2  2  0
  4  3  1  0
  5  4  1  0
  5  6  1  1
  7  5  1  0
  8  7  1  0
  9  8  2  0
 10  5  1  0
 10  9  1  0
 11 10  2  0
 12  9  1  0
 13 12  2  0
 14 13  1  0
 15 14  2  0
 16 15  1  0
 17 16  2  0
 17 12  1  0
 18 17  1  0
 19 18  2  0
 19  8  1  0
 20 19  1  0
 21 15  1  0
 22 21  1  0
 23 22  2  0
 24 22  1  0
 25 24  2  0
 26 25  1  0
 27 26  2  0
 28 27  1  0
 29 28  1  0
 30 29  1  0
 31 30  1  0
 32 31  1  0
 33 32  1  0
 34 33  1  0
 34  1  1  0
 35 34  1  0
 36 32  1  0
 37 30  1  0
 38 28  1  0
 39 24  1  0
 41 40  1  0
 41  1  1  0
 42 13  1  0
 43 14  1  0
 44 43  2  0
 45 44  1  0
 46 45  1  0
 47 46  1  0
 48 47  1  0
 49 48  1  0
 50 49  1  0
 50 45  1  0
 51 48  1  0
 52 18  1  0
 53 16  1  0
 54 31  1  0
 55 29  1  0
 56 33  1  0
 57 56  1  0
 58 57  2  0
 59 57  1  0
  1 60  1  1
  2 61  1  0
  3 62  1  0
  6 63  1  0
  6 64  1  0
  6 65  1  0
 20 66  1  0
 20 67  1  0
 20 68  1  0
 21 69  1  0
 25 70  1  0
 26 71  1  0
 27 72  1  0
 28 73  1  1
 29 74  1  6
 30 75  1  1
 31 76  1  6
 32 77  1  1
 33 78  1  1
 34 79  1  6
 35 80  1  0
 35 81  1  0
 35 82  1  0
 36 83  1  0
 36 84  1  0
 36 85  1  0
 37 86  1  0
 37 87  1  0
 37 88  1  0
 38 89  1  0
 38 90  1  0
 38 91  1  0
 39 92  1  0
 39 93  1  0
 39 94  1  0
 40 95  1  0
 40 96  1  0
 40 97  1  0
 42 98  1  0
 43 99  1  0
 46100  1  0
 46101  1  0
 47102  1  0
 47103  1  0
 48104  1  0
 49105  1  0
 49106  1  0
 50107  1  0
 50108  1  0
 51109  1  0
 51110  1  0
 51111  1  0
 52112  1  0
 53113  1  0
 54114  1  0
 55115  1  0
 59116  1  0
 59117  1  0
 59118  1  0
M  CHG  1  48   1
M  END
>  <score>  (5) 
-4.791

$$$$
=
     RDKit          3D

118122  0  0  0  0  0  0  0  0999 V2000
   -5.2590   64.2080   77.1880 C   0  0  1  0  0  0  0  0  0  0  0  0
   -6.6290   64.1560   76.5450 C   0  0  0  0  0  0  0  0  0  0  0  0
   -7.3760   63.2530   75.8830 C   0  0  0  0  0  0  0  0  0  0  0  0
   -7.2910   61.9540   75.5190 O   0  0  0  0  0  0  0  0  0  0  0  0
   -6.4180   60.9670   76.0230 C   0  0  1  0  0  0  0  0  0  0  0  0
   -6.5240   60.8250   77.5430 C   0  0  0  0  0  0  0  0  0  0  0  0
   -6.8270   59.6520   75.4970 O   0  0  0  0  0  0  0  0  0  0  0  0
   -5.6720   58.9240   75.3310 C   0  0  0  0  0  0  0  0  0  0  0  0
   -4.5140   59.6800   75.3300 C   0  0  0  0  0  0  0  0  0  0  0  0
   -4.9840   61.0360   75.5170 C   0  0  0  0  0  0  0  0  0  0  0  0
   -4.3050   62.0170   75.2620 O   0  0  0  0  0  0  0  0  0  0  0  0
   -3.2170   59.1440   75.2520 C   0  0  0  0  0  0  0  0  0  0  0  0
   -2.0100   59.8970   75.2300 C   0  0  0  0  0  0  0  0  0  0  0  0
   -0.7730   59.2600   75.3050 C   0  0  0  0  0  0  0  0  0  0  0  0
   -0.6910   57.8860   75.4970 C   0  0  0  0  0  0  0  0  0  0  0  0
   -1.8500   57.1210   75.3760 C   0  0  0  0  0  0  0  0  0  0  0  0
   -3.1400   57.7180   75.2490 C   0  0  0  0  0  0  0  0  0  0  0  0
   -4.3610   56.9600   75.1890 C   0  0  0  0  0  0  0  0  0  0  0  0
   -5.6400   57.5480   75.2060 C   0  0  0  0  0  0  0  0  0  0  0  0
   -6.9100   56.7500   75.1740 C   0  0  0  0  0  0  0  0  0  0  0  0
    0.5230   57.2780   75.9260 N   0  0  0  0  0  0  0  0  0  0  0  0
    1.0380   57.7530   77.1270 C   0  0  0  0  0  0  0  0  0  0  0  0
    0.3590   58.3870   77.9320 O   0  0  0  0  0  0  0  0  0  0  0  0
    2.4960   57.4900   77.3360 C   0  0  0  0  0  0  0  0  0  0  0  0
    3.2910   58.4640   77.8360 C   0  0  0  0  0  0  0  0  0  0  0  0
    2.8690   59.7970   78.2300 C   0  0  0  0  0  0  0  0  0  0  0  0
    2.2440   60.0370   79.3940 C   0  0  0  0  0  0  0  0  0  0  0  0
    1.5200   61.3060   79.8450 C   0  0  1  0  0  0  0  0  0  0  0  0
    1.0200   62.2240   78.6710 C   0  0  1  0  0  0  0  0  0  0  0  0
   -0.0500   63.3070   79.0410 C   0  0  2  0  0  0  0  0  0  0  0  0
   -0.6790   64.0450   77.8020 C   0  0  2  0  0  0  0  0  0  0  0  0
   -2.2090   64.4200   77.9450 C   0  0  2  0  0  0  0  0  0  0  0  0
   -2.7770   64.9570   76.5910 C   0  0  1  0  0  0  0  0  0  0  0  0
   -4.3230   65.2000   76.4160 C   0  0  2  0  0  0  0  0  0  0  0  0
   -4.7150   66.6810   76.6270 C   0  0  0  0  0  0  0  0  0  0  0  0
   -2.4060   65.4130   79.0920 C   0  0  0  0  0  0  0  0  0  0  0  0
    0.5680   64.3280   80.0180 C   0  0  0  0  0  0  0  0  0  0  0  0
    0.3600   60.8620   80.7530 C   0  0  0  0  0  0  0  0  0  0  0  0
    3.0290   56.1530   76.9280 C   0  0  0  0  0  0  0  0  0  0  0  0
   -5.8710   63.8270   79.4930 C   0  0  0  0  0  0  0  0  0  0  0  0
   -5.4250   64.7430   78.5080 O   0  0  0  0  0  0  0  0  0  0  0  0
   -1.9660   61.2690   75.2020 O   0  0  0  0  0  0  0  0  0  0  0  0
    0.4540   60.0410   75.0990 C   0  0  0  0  0  0  0  0  0  0  0  0
    1.3440   59.6310   74.2500 N   0  0  0  0  0  0  0  0  0  0  0  0
    2.4410   60.4490   74.0660 N   0  0  0  0  0  0  0  0  0  0  0  0
    3.6480   59.6830   73.7410 C   0  0  0  0  0  0  0  0  0  0  0  0
    3.6070   59.1910   72.2860 C   0  0  0  0  0  0  0  0  0  0  0  0
    3.4030   60.3680   71.3310 N   0  0  0  0  0  4  0  0  0  0  0  0
    2.1430   61.1720   71.7140 C   0  0  0  0  0  0  0  0  0  0  0  0
    2.2430   61.6140   73.1810 C   0  0  0  0  0  0  0  0  0  0  0  0
    3.3400   59.9210   69.9060 C   0  0  0  0  0  0  0  0  0  0  0  0
   -4.2350   55.5870   75.1490 O   0  0  0  0  0  0  0  0  0  0  0  0
   -1.6830   55.7570   75.4790 O   0  0  0  0  0  0  0  0  0  0  0  0
   -0.5220   63.2640   76.6150 O   0  0  0  0  0  0  0  0  0  0  0  0
    2.1430   62.8850   78.0590 O   0  0  0  0  0  0  0  0  0  0  0  0
   -2.0630   66.1890   76.2980 O   0  0  0  0  0  0  0  0  0  0  0  0
   -1.6860   66.4480   75.0240 C   0  0  0  0  0  0  0  0  0  0  0  0
   -2.3070   67.0980   74.1940 O   0  0  0  0  0  0  0  0  0  0  0  0
   -0.3690   65.7860   74.7510 C   0  0  0  0  0  0  0  0  0  0  0  0
   -4.8197   63.1995   77.1846 H   0  0  0  0  0  0  0  0  0  0  0  0
   -7.1564   65.1160   76.6464 H   0  0  0  0  0  0  0  0  0  0  0  0
   -8.3227   63.6975   75.5420 H   0  0  0  0  0  0  0  0  0  0  0  0
   -5.9332   61.6165   78.0273 H   0  0  0  0  0  0  0  0  0  0  0  0
   -7.5772   60.9155   77.8472 H   0  0  0  0  0  0  0  0  0  0  0  0
   -6.1378   59.8410   77.8472 H   0  0  0  0  0  0  0  0  0  0  0  0
   -7.2391   56.5432   76.2030 H   0  0  0  0  0  0  0  0  0  0  0  0
   -7.6889   57.3213   74.6478 H   0  0  0  0  0  0  0  0  0  0  0  0
   -6.7332   55.8004   74.6478 H   0  0  0  0  0  0  0  0  0  0  0  0
    0.9882   56.5364   75.3833 H   0  0  0  0  0  0  0  0  0  0  0  0
    4.3578   58.2237   77.9554 H   0  0  0  0  0  0  0  0  0  0  0  0
    3.0684   60.6392   77.5511 H   0  0  0  0  0  0  0  0  0  0  0  0
    2.2542   59.2105   80.1198 H   0  0  0  0  0  0  0  0  0  0  0  0
    2.2350   61.9445   80.3845 H   0  0  0  0  0  0  0  0  0  0  0  0
    0.5108   61.5294   77.9868 H   0  0  0  0  0  0  0  0  0  0  0  0
   -0.8841   62.7706   79.5170 H   0  0  0  0  0  0  0  0  0  0  0  0
   -0.1222   64.9919   77.7441 H   0  0  0  0  0  0  0  0  0  0  0  0
   -2.7796   63.5129   78.1932 H   0  0  0  0  0  0  0  0  0  0  0  0
   -2.6159   64.1241   75.8908 H   0  0  0  0  0  0  0  0  0  0  0  0
   -4.5100   64.9568   75.3596 H   0  0  0  0  0  0  0  0  0  0  0  0
   -4.7717   66.8954   77.7044 H   0  0  0  0  0  0  0  0  0  0  0  0
   -3.9578   67.3304   76.1633 H   0  0  0  0  0  0  0  0  0  0  0  0
   -5.6943   66.8707   76.1633 H   0  0  0  0  0  0  0  0  0  0  0  0
   -2.3019   64.8883   80.0532 H   0  0  0  0  0  0  0  0  0  0  0  0
   -1.6479   66.2071   79.0238 H   0  0  0  0  0  0  0  0  0  0  0  0
   -3.4098   65.8576   79.0238 H   0  0  0  0  0  0  0  0  0  0  0  0
    0.3747   64.0087   81.0528 H   0  0  0  0  0  0  0  0  0  0  0  0
    1.6534   64.3866   79.8490 H   0  0  0  0  0  0  0  0  0  0  0  0
    0.1167   65.3168   79.8490 H   0  0  0  0  0  0  0  0  0  0  0  0
    0.6552   60.9750   81.8066 H   0  0  0  0  0  0  0  0  0  0  0  0
   -0.5233   61.4856   80.5508 H   0  0  0  0  0  0  0  0  0  0  0  0
    0.1188   59.8080   80.5508 H   0  0  0  0  0  0  0  0  0  0  0  0
    3.2644   55.5626   77.8258 H   0  0  0  0  0  0  0  0  0  0  0  0
    2.2730   55.6241   76.3291 H   0  0  0  0  0  0  0  0  0  0  0  0
    3.9416   56.2893   76.3291 H   0  0  0  0  0  0  0  0  0  0  0  0
   -5.6708   64.2381   80.4935 H   0  0  0  0  0  0  0  0  0  0  0  0
   -6.9517   63.6591   79.3751 H   0  0  0  0  0  0  0  0  0  0  0  0
   -5.3367   62.8728   79.3751 H   0  0  0  0  0  0  0  0  0  0  0  0
   -1.0932   61.7361   75.1877 H   0  0  0  0  0  0  0  0  0  0  0  0
    0.6172   60.9710   75.6634 H   0  0  0  0  0  0  0  0  0  0  0  0
    4.5306   60.3247   73.8799 H   0  0  0  0  0  0  0  0  0  0  0  0
    3.7010   58.8093   74.4072 H   0  0  0  0  0  0  0  0  0  0  0  0
    4.5563   58.6898   72.0460 H   0  0  0  0  0  0  0  0  0  0  0  0
    2.7688   58.4881   72.1704 H   0  0  0  0  0  0  0  0  0  0  0  0
    4.2219   60.9861   71.4220 H   0  0  0  0  0  0  0  0  0  0  0  0
    2.0641   62.0592   71.0685 H   0  0  0  0  0  0  0  0  0  0  0  0
    1.2517   60.5411   71.5815 H   0  0  0  0  0  0  0  0  0  0  0  0
    3.0943   62.3015   73.2935 H   0  0  0  0  0  0  0  0  0  0  0  0
    1.3060   62.1165   73.4630 H   0  0  0  0  0  0  0  0  0  0  0  0
    3.1866   58.8324   69.8697 H   0  0  0  0  0  0  0  0  0  0  0  0
    2.5042   60.4262   69.3999 H   0  0  0  0  0  0  0  0  0  0  0  0
    4.2829   60.1755   69.3999 H   0  0  0  0  0  0  0  0  0  0  0  0
   -5.0432   55.0168   75.1071 H   0  0  0  0  0  0  0  0  0  0  0  0
   -2.4654   55.1553   75.4023 H   0  0  0  0  0  0  0  0  0  0  0  0
   -0.3330   62.3239   76.8611 H   0  0  0  0  0  0  0  0  0  0  0  0
    2.7424   63.2378   78.7636 H   0  0  0  0  0  0  0  0  0  0  0  0
    0.1219   65.5393   75.7040 H   0  0  0  0  0  0  0  0  0  0  0  0
   -0.5346   64.8640   74.1744 H   0  0  0  0  0  0  0  0  0  0  0  0
    0.2721   66.4690   74.1744 H   0  0  0  0  0  0  0  0  0  0  0  0
  2  1  1  0
  3  2  2  0
  4  3  1  0
  5  4  1  0
  5  6  1  1
  7  5  1  0
  8  7  1  0
  9  8  2  0
 10  5  1  0
 10  9  1  0
 11 10  2  0
 12  9  1  0
 13 12  2  0
 14 13  1  0
 15 14  2  0
 16 15  1  0
 17 16  2  0
 17 12  1  0
 18 17  1  0
 19 18  2  0
 19  8  1  0
 20 19  1  0
 21 15  1  0
 22 21  1  0
 23 22  2  0
 24 22  1  0
 25 24  2  0
 26 25  1  0
 27 26  2  0
 28 27  1  0
 29 28  1  0
 30 29  1  0
 31 30  1  0
 32 31  1  0
 33 32  1  0
 34 33  1  0
 34  1  1  0
 35 34  1  0
 36 32  1  0
 37 30  1  0
 38 28  1  0
 39 24  1  0
 41 40  1  0
 41  1  1  0
 42 13  1  0
 43 14  1  0
 44 43  2  0
 45 44  1  0
 46 45  1  0
 47 46  1  0
 48 47  1  0
 49 48  1  0
 50 49  1  0
 50 45  1  0
 51 48  1  0
 52 18  1  0
 53 16  1  0
 54 31  1  0
 55 29  1  0
 56 33  1  0
 57 56  1  0
 58 57  2  0
 59 57  1  0
  1 60  1  1
  2 61  1  0
  3 62  1  0
  6 63  1  0
  6 64  1  0
  6 65  1  0
 20 66  1  0
 20 67  1  0
 20 68  1  0
 21 69  1  0
 25 70  1  0
 26 71  1  0
 27 72  1  0
 28 73  1  1
 29 74  1  6
 30 75  1  1
 31 76  1  6
 32 77  1  1
 33 78  1  6
 34 79  1  6
 35 80  1  0
 35 81  1  0
 35 82  1  0
 36 83  1  0
 36 84  1  0
 36 85  1  0
 37 86  1  0
 37 87  1  0
 37 88  1  0
 38 89  1  0
 38 90  1  0
 38 91  1  0
 39 92  1  0
 39 93  1  0
 39 94  1  0
 40 95  1  0
 40 96  1  0
 40 97  1  0
 42 98  1  0
 43 99  1  0
 46100  1  0
 46101  1  0
 47102  1  0
 47103  1  0
 48104  1  0
 49105  1  0
 49106  1  0
 50107  1  0
 50108  1  0
 51109  1  0
 51110  1  0
 51111  1  0
 52112  1  0
 53113  1  0
 54114  1  0
 55115  1  0
 59116  1  0
 59117  1  0
 59118  1  0
M  CHG  1  48   1
M  END
>  <score>  (6) 
-4.771

$$$$
=
     RDKit          3D

118122  0  0  0  0  0  0  0  0999 V2000
   -2.2990   63.8170   76.6870 C   0  0  1  0  0  0  0  0  0  0  0  0
   -3.6390   64.3120   76.1860 C   0  0  0  0  0  0  0  0  0  0  0  0
   -4.8450   63.7860   75.9010 C   0  0  0  0  0  0  0  0  0  0  0  0
   -5.4560   62.5820   75.9720 O   0  0  0  0  0  0  0  0  0  0  0  0
   -5.0560   61.4490   76.7100 C   0  0  1  0  0  0  0  0  0  0  0  0
   -4.8810   61.7610   78.1980 C   0  0  0  0  0  0  0  0  0  0  0  0
   -6.1340   60.4430   76.6650 O   0  0  0  0  0  0  0  0  0  0  0  0
   -5.5170   59.2140   76.6690 C   0  0  0  0  0  0  0  0  0  0  0  0
   -4.1720   59.2460   76.3480 C   0  0  0  0  0  0  0  0  0  0  0  0
   -3.9040   60.6500   76.1170 C   0  0  0  0  0  0  0  0  0  0  0  0
   -2.9210   61.0480   75.5150 O   0  0  0  0  0  0  0  0  0  0  0  0
   -3.3260   58.1240   76.3640 C   0  0  0  0  0  0  0  0  0  0  0  0
   -1.9450   58.1250   76.0210 C   0  0  0  0  0  0  0  0  0  0  0  0
   -1.1630   56.9870   76.2170 C   0  0  0  0  0  0  0  0  0  0  0  0
   -1.6910   55.8600   76.8380 C   0  0  0  0  0  0  0  0  0  0  0  0
   -3.0670   55.7910   77.0460 C   0  0  0  0  0  0  0  0  0  0  0  0
   -3.9240   56.9090   76.8170 C   0  0  0  0  0  0  0  0  0  0  0  0
   -5.3370   56.8920   77.0850 C   0  0  0  0  0  0  0  0  0  0  0  0
   -6.1570   58.0330   76.9940 C   0  0  0  0  0  0  0  0  0  0  0  0
   -7.6250   58.0140   77.3040 C   0  0  0  0  0  0  0  0  0  0  0  0
   -0.8380   54.8470   77.3610 N   0  0  0  0  0  0  0  0  0  0  0  0
    0.0860   55.2720   78.3070 C   0  0  0  0  0  0  0  0  0  0  0  0
   -0.0250   56.3400   78.9070 O   0  0  0  0  0  0  0  0  0  0  0  0
    1.2610   54.3640   78.4940 C   0  0  0  0  0  0  0  0  0  0  0  0
    2.5050   54.8850   78.6010 C   0  0  0  0  0  0  0  0  0  0  0  0
    2.8490   56.2960   78.5690 C   0  0  0  0  0  0  0  0  0  0  0  0
    2.6780   57.1000   79.6310 C   0  0  0  0  0  0  0  0  0  0  0  0
    2.7460   58.6270   79.6940 C   0  0  1  0  0  0  0  0  0  0  0  0
    2.4880   59.3480   78.3210 C   0  0  1  0  0  0  0  0  0  0  0  0
    2.1540   60.8780   78.3900 C   0  0  2  0  0  0  0  0  0  0  0  0
    1.6870   61.5000   77.0220 C   0  0  2  0  0  0  0  0  0  0  0  0
    0.5810   62.6240   77.1350 C   0  0  2  0  0  0  0  0  0  0  0  0
    0.0480   63.0220   75.7200 C   0  0  1  0  0  0  0  0  0  0  0  0
   -1.2040   63.9660   75.5770 C   0  0  2  0  0  0  0  0  0  0  0  0
   -0.8050   65.4390   75.3220 C   0  0  0  0  0  0  0  0  0  0  0  0
    1.1240   63.8260   77.9100 C   0  0  0  0  0  0  0  0  0  0  0  0
    3.3720   61.6450   78.9410 C   0  0  0  0  0  0  0  0  0  0  0  0
    1.7430   59.0770   80.7700 C   0  0  0  0  0  0  0  0  0  0  0  0
    1.0070   52.8900   78.5080 C   0  0  0  0  0  0  0  0  0  0  0  0
   -2.7010   64.5860   78.9400 C   0  0  0  0  0  0  0  0  0  0  0  0
   -1.9050   64.6680   77.7710 O   0  0  0  0  0  0  0  0  0  0  0  0
   -1.2760   59.2250   75.5480 O   0  0  0  0  0  0  0  0  0  0  0  0
    0.2080   56.9550   75.6910 C   0  0  0  0  0  0  0  0  0  0  0  0
    0.6260   55.9100   75.0460 N   0  0  0  0  0  0  0  0  0  0  0  0
    1.9040   55.9780   74.5300 N   0  0  0  0  0  0  0  0  0  0  0  0
    1.9150   55.8270   73.0720 C   0  0  0  0  0  0  0  0  0  0  0  0
    1.4290   57.1130   72.3860 C   0  0  0  0  0  0  0  0  0  0  0  0
    2.2660   58.3090   72.8420 N   0  0  0  0  0  4  0  0  0  0  0  0
    2.2590   58.4260   74.3810 C   0  0  0  0  0  0  0  0  0  0  0  0
    2.7360   57.1040   74.9980 C   0  0  0  0  0  0  0  0  0  0  0  0
    1.8060   59.5820   72.2070 C   0  0  0  0  0  0  0  0  0  0  0  0
   -5.8760   55.6860   77.4820 O   0  0  0  0  0  0  0  0  0  0  0  0
   -3.5360   54.6070   77.5730 O   0  0  0  0  0  0  0  0  0  0  0  0
    1.2000   60.4830   76.1430 O   0  0  0  0  0  0  0  0  0  0  0  0
    3.6250   59.1690   77.4560 O   0  0  0  0  0  0  0  0  0  0  0  0
    1.1690   63.6000   74.9990 O   0  0  0  0  0  0  0  0  0  0  0  0
    1.6260   62.9850   73.8830 C   0  0  0  0  0  0  0  0  0  0  0  0
    2.5720   62.2110   73.8090 O   0  0  0  0  0  0  0  0  0  0  0  0
    0.8030   63.4130   72.7060 C   0  0  0  0  0  0  0  0  0  0  0  0
   -2.3913   62.7612   76.9815 H   0  0  0  0  0  0  0  0  0  0  0  0
   -3.6229   65.3970   76.0057 H   0  0  0  0  0  0  0  0  0  0  0  0
   -5.5243   64.5509   75.4967 H   0  0  0  0  0  0  0  0  0  0  0  0
   -5.3324   60.9563   78.7969 H   0  0  0  0  0  0  0  0  0  0  0  0
   -3.8091   61.8361   78.4333 H   0  0  0  0  0  0  0  0  0  0  0  0
   -5.3758   62.7149   78.4333 H   0  0  0  0  0  0  0  0  0  0  0  0
   -7.7695   58.0121   78.3945 H   0  0  0  0  0  0  0  0  0  0  0  0
   -8.1025   58.9060   76.8724 H   0  0  0  0  0  0  0  0  0  0  0  0
   -8.0792   57.1099   76.8724 H   0  0  0  0  0  0  0  0  0  0  0  0
   -0.9019   53.8646   77.0581 H   0  0  0  0  0  0  0  0  0  0  0  0
    3.3343   54.1729   78.7238 H   0  0  0  0  0  0  0  0  0  0  0  0
    3.2639   56.7205   77.6429 H   0  0  0  0  0  0  0  0  0  0  0  0
    2.4600   56.5929   80.5825 H   0  0  0  0  0  0  0  0  0  0  0  0
    3.7741   58.9221   79.9509 H   0  0  0  0  0  0  0  0  0  0  0  0
    1.5790   58.8656   77.9325 H   0  0  0  0  0  0  0  0  0  0  0  0
    1.2931   60.9793   79.0672 H   0  0  0  0  0  0  0  0  0  0  0  0
    2.5926   61.9819   76.6249 H   0  0  0  0  0  0  0  0  0  0  0  0
   -0.2763   62.2284   77.6994 H   0  0  0  0  0  0  0  0  0  0  0  0
   -0.3541   62.0807   75.3172 H   0  0  0  0  0  0  0  0  0  0  0  0
   -1.7090   63.5988   74.6714 H   0  0  0  0  0  0  0  0  0  0  0  0
   -0.6658   65.9530   76.2845 H   0  0  0  0  0  0  0  0  0  0  0  0
    0.1341   65.4708   74.7501 H   0  0  0  0  0  0  0  0  0  0  0  0
   -1.5997   65.9404   74.7501 H   0  0  0  0  0  0  0  0  0  0  0  0
    1.0378   63.6353   78.9899 H   0  0  0  0  0  0  0  0  0  0  0  0
    2.1808   63.9837   77.6487 H   0  0  0  0  0  0  0  0  0  0  0  0
    0.5438   64.7233   77.6487 H   0  0  0  0  0  0  0  0  0  0  0  0
    3.3480   61.6299   80.0406 H   0  0  0  0  0  0  0  0  0  0  0  0
    4.2972   61.1662   78.5878 H   0  0  0  0  0  0  0  0  0  0  0  0
    3.3400   62.6863   78.5878 H   0  0  0  0  0  0  0  0  0  0  0  0
    2.1658   58.8873   81.7676 H   0  0  0  0  0  0  0  0  0  0  0  0
    1.5406   60.1522   80.6559 H   0  0  0  0  0  0  0  0  0  0  0  0
    0.8053   58.5133   80.6559 H   0  0  0  0  0  0  0  0  0  0  0  0
    0.9464   52.5382   79.5485 H   0  0  0  0  0  0  0  0  0  0  0  0
    0.0588   52.6764   77.9929 H   0  0  0  0  0  0  0  0  0  0  0  0
    1.8290   52.3714   77.9929 H   0  0  0  0  0  0  0  0  0  0  0  0
   -2.0557   64.6525   79.8284 H   0  0  0  0  0  0  0  0  0  0  0  0
   -3.4247   65.4143   78.9497 H   0  0  0  0  0  0  0  0  0  0  0  0
   -3.2406   63.6275   78.9497 H   0  0  0  0  0  0  0  0  0  0  0  0
   -0.3131   59.1615   75.3268 H   0  0  0  0  0  0  0  0  0  0  0  0
    0.8779   57.8141   75.8435 H   0  0  0  0  0  0  0  0  0  0  0  0
    2.9403   55.6067   72.7401 H   0  0  0  0  0  0  0  0  0  0  0  0
    1.2384   55.0042   72.7979 H   0  0  0  0  0  0  0  0  0  0  0  0
    1.5223   56.9998   71.2958 H   0  0  0  0  0  0  0  0  0  0  0  0
    0.3779   57.2880   72.6591 H   0  0  0  0  0  0  0  0  0  0  0  0
    3.2348   58.1453   72.5329 H   0  0  0  0  0  0  0  0  0  0  0  0
    2.9329   59.2387   74.6898 H   0  0  0  0  0  0  0  0  0  0  0  0
    1.2379   58.6442   74.7270 H   0  0  0  0  0  0  0  0  0  0  0  0
    3.7815   56.9260   74.7059 H   0  0  0  0  0  0  0  0  0  0  0  0
    2.6515   57.1744   76.0925 H   0  0  0  0  0  0  0  0  0  0  0  0
    1.5435   60.3084   72.9902 H   0  0  0  0  0  0  0  0  0  0  0  0
    2.6127   59.9923   71.5818 H   0  0  0  0  0  0  0  0  0  0  0  0
    0.9233   59.3818   71.5818 H   0  0  0  0  0  0  0  0  0  0  0  0
   -6.8437   55.6174   77.6795 H   0  0  0  0  0  0  0  0  0  0  0  0
   -4.5039   54.4911   77.7458 H   0  0  0  0  0  0  0  0  0  0  0  0
    0.8398   59.7307   76.6763 H   0  0  0  0  0  0  0  0  0  0  0  0
    4.4395   59.0408   78.0039 H   0  0  0  0  0  0  0  0  0  0  0  0
   -0.1210   63.8935   73.0600 H   0  0  0  0  0  0  0  0  0  0  0  0
    1.3773   64.1266   72.0970 H   0  0  0  0  0  0  0  0  0  0  0  0
    0.5486   62.5330   72.0970 H   0  0  0  0  0  0  0  0  0  0  0  0
  2  1  1  0
  3  2  2  0
  4  3  1  0
  5  4  1  0
  5  6  1  1
  7  5  1  0
  8  7  1  0
  9  8  2  0
 10  5  1  0
 10  9  1  0
 11 10  2  0
 12  9  1  0
 13 12  2  0
 14 13  1  0
 15 14  2  0
 16 15  1  0
 17 16  2  0
 17 12  1  0
 18 17  1  0
 19 18  2  0
 19  8  1  0
 20 19  1  0
 21 15  1  0
 22 21  1  0
 23 22  2  0
 24 22  1  0
 25 24  2  0
 26 25  1  0
 27 26  2  0
 28 27  1  0
 29 28  1  0
 30 29  1  0
 31 30  1  0
 32 31  1  0
 33 32  1  0
 34 33  1  0
 34  1  1  0
 35 34  1  0
 36 32  1  0
 37 30  1  0
 38 28  1  0
 39 24  1  0
 41 40  1  0
 41  1  1  0
 42 13  1  0
 43 14  1  0
 44 43  2  0
 45 44  1  0
 46 45  1  0
 47 46  1  0
 48 47  1  0
 49 48  1  0
 50 49  1  0
 50 45  1  0
 51 48  1  0
 52 18  1  0
 53 16  1  0
 54 31  1  0
 55 29  1  0
 56 33  1  0
 57 56  1  0
 58 57  2  0
 59 57  1  0
  1 60  1  1
  2 61  1  0
  3 62  1  0
  6 63  1  0
  6 64  1  0
  6 65  1  0
 20 66  1  0
 20 67  1  0
 20 68  1  0
 21 69  1  0
 25 70  1  0
 26 71  1  0
 27 72  1  0
 28 73  1  1
 29 74  1  6
 30 75  1  1
 31 76  1  6
 32 77  1  1
 33 78  1  6
 34 79  1  6
 35 80  1  0
 35 81  1  0
 35 82  1  0
 36 83  1  0
 36 84  1  0
 36 85  1  0
 37 86  1  0
 37 87  1  0
 37 88  1  0
 38 89  1  0
 38 90  1  0
 38 91  1  0
 39 92  1  0
 39 93  1  0
 39 94  1  0
 40 95  1  0
 40 96  1  0
 40 97  1  0
 42 98  1  0
 43 99  1  0
 46100  1  0
 46101  1  0
 47102  1  0
 47103  1  0
 48104  1  0
 49105  1  0
 49106  1  0
 50107  1  0
 50108  1  0
 51109  1  0
 51110  1  0
 51111  1  0
 52112  1  0
 53113  1  0
 54114  1  0
 55115  1  0
 59116  1  0
 59117  1  0
 59118  1  0
M  CHG  1  48   1
M  END
>  <score>  (7) 
-4.719

$$$$
