=
     RDKit          3D

 18 17  0  0  0  0  0  0  0  0999 V2000
    2.8370   67.7290   64.0540 C   0  0  0  0  0  0  0  0  0  0  0  0
    0.4100   68.0850   63.9320 O   0  0  0  0  0  1  0  0  0  0  0  0
    1.3300   67.4060   64.4940 C   0  0  0  0  0  0  0  0  0  0  0  0
    1.1660   66.4500   65.3220 O   0  0  0  0  0  0  0  0  0  0  0  0
    2.8870   68.0670   62.6400 O   0  0  0  0  0  0  0  0  0  0  0  0
    3.7430   66.5160   64.3020 C   0  0  0  0  0  0  0  0  0  0  0  0
    4.4080   65.8810   63.0710 C   0  0  0  0  0  0  0  0  0  0  0  0
    4.2270   64.6290   62.9280 O   0  0  0  0  0  0  0  0  0  0  0  0
    5.1520   66.6300   62.3650 O   0  0  0  0  0  1  0  0  0  0  0  0
    3.2110   68.9900   64.8680 C   0  0  0  0  0  0  0  0  0  0  0  0
    4.6160   69.6030   64.9170 C   0  0  0  0  0  0  0  0  0  0  0  0
    4.9950   70.1250   66.0080 O   0  0  0  0  0  0  0  0  0  0  0  0
    5.2390   69.6490   63.8050 O   0  0  0  0  0  1  0  0  0  0  0  0
    3.0311   69.0412   62.5385 H   0  0  0  0  0  0  0  0  0  0  0  0
    4.5442   66.8340   64.9854 H   0  0  0  0  0  0  0  0  0  0  0  0
    3.0763   65.7373   64.7011 H   0  0  0  0  0  0  0  0  0  0  0  0
    2.5519   69.7887   64.4970 H   0  0  0  0  0  0  0  0  0  0  0  0
    3.1183   68.6066   65.8948 H   0  0  0  0  0  0  0  0  0  0  0  0
  3  2  1  0
  3  1  1  0
  4  3  2  0
  5  1  1  0
  6  1  1  0
  7  6  1  0
  8  7  2  0
  9  7  1  0
 10  1  1  0
 11 10  1  0
 12 11  2  0
 13 11  1  0
  5 14  1  0
  6 15  1  0
  6 16  1  0
 10 17  1  0
 10 18  1  0
M  CHG  3   2  -1   9  -1  13  -1
M  END
>  <score>  (1) 
-5.789

$$$$
=
     RDKit          3D

 18 17  0  0  0  0  0  0  0  0999 V2000
    2.8310   68.4130   63.2690 C   0  0  0  0  0  0  0  0  0  0  0  0
    4.0690   67.0710   61.6270 O   0  0  0  0  0  1  0  0  0  0  0  0
    3.4200   68.1530   61.8010 C   0  0  0  0  0  0  0  0  0  0  0  0
    3.1370   69.0170   60.9080 O   0  0  0  0  0  0  0  0  0  0  0  0
    2.5220   67.1480   63.9190 O   0  0  0  0  0  0  0  0  0  0  0  0
    1.5480   69.2520   63.1940 C   0  0  0  0  0  0  0  0  0  0  0  0
    0.2290   68.5380   63.5260 C   0  0  0  0  0  0  0  0  0  0  0  0
   -0.0650   68.4650   64.7630 O   0  0  0  0  0  0  0  0  0  0  0  0
   -0.3990   68.0040   62.5600 O   0  0  0  0  0  1  0  0  0  0  0  0
    3.9950   69.0820   64.0360 C   0  0  0  0  0  0  0  0  0  0  0  0
    3.9960   69.3500   65.5460 C   0  0  0  0  0  0  0  0  0  0  0  0
    3.0290   68.8950   66.2270 O   0  0  0  0  0  0  0  0  0  0  0  0
    4.9140   70.1270   65.9700 O   0  0  0  0  0  1  0  0  0  0  0  0
    2.5509   67.2661   64.9015 H   0  0  0  0  0  0  0  0  0  0  0  0
    1.6579   70.0905   63.8974 H   0  0  0  0  0  0  0  0  0  0  0  0
    1.4577   69.5432   62.1371 H   0  0  0  0  0  0  0  0  0  0  0  0
    4.8761   68.4513   63.8464 H   0  0  0  0  0  0  0  0  0  0  0  0
    3.9347   70.1086   63.6455 H   0  0  0  0  0  0  0  0  0  0  0  0
  3  2  1  0
  3  1  1  0
  4  3  2  0
  5  1  1  0
  6  1  1  0
  7  6  1  0
  8  7  2  0
  9  7  1  0
 10  1  1  0
 11 10  1  0
 12 11  2  0
 13 11  1  0
  5 14  1  0
  6 15  1  0
  6 16  1  0
 10 17  1  0
 10 18  1  0
M  CHG  3   2  -1   9  -1  13  -1
M  END
>  <score>  (2) 
-5.693

$$$$
=
     RDKit          3D

 18 17  0  0  0  0  0  0  0  0999 V2000
    2.1870   66.9970   64.7230 C   0  0  0  0  0  0  0  0  0  0  0  0
    0.3810   67.8650   63.3050 O   0  0  0  0  0  1  0  0  0  0  0  0
    1.5940   68.0350   63.6550 C   0  0  0  0  0  0  0  0  0  0  0  0
    2.3600   68.9870   63.2920 O   0  0  0  0  0  0  0  0  0  0  0  0
    1.5050   65.7160   64.6140 O   0  0  0  0  0  0  0  0  0  0  0  0
    2.0070   67.5300   66.1510 C   0  0  0  0  0  0  0  0  0  0  0  0
    0.5670   67.7890   66.6200 C   0  0  0  0  0  0  0  0  0  0  0  0
   -0.2500   66.8270   66.4550 O   0  0  0  0  0  0  0  0  0  0  0  0
    0.2970   68.9580   67.0370 O   0  0  0  0  0  1  0  0  0  0  0  0
    3.6590   66.8020   64.2890 C   0  0  0  0  0  0  0  0  0  0  0  0
    4.1040   65.9360   63.1040 C   0  0  0  0  0  0  0  0  0  0  0  0
    4.3180   66.5140   61.9970 O   0  0  0  0  0  0  0  0  0  0  0  0
    4.0960   64.6760   63.3050 O   0  0  0  0  0  1  0  0  0  0  0  0
    1.3175   65.3638   65.5200 H   0  0  0  0  0  0  0  0  0  0  0  0
    2.4534   66.7963   66.8383 H   0  0  0  0  0  0  0  0  0  0  0  0
    2.4907   68.5179   66.1514 H   0  0  0  0  0  0  0  0  0  0  0  0
    4.0425   67.8114   64.0791 H   0  0  0  0  0  0  0  0  0  0  0  0
    4.0452   66.2105   65.1322 H   0  0  0  0  0  0  0  0  0  0  0  0
  3  2  1  0
  3  1  1  0
  4  3  2  0
  5  1  1  0
  6  1  1  0
  7  6  1  0
  8  7  2  0
  9  7  1  0
 10  1  1  0
 11 10  1  0
 12 11  2  0
 13 11  1  0
  5 14  1  0
  6 15  1  0
  6 16  1  0
 10 17  1  0
 10 18  1  0
M  CHG  3   2  -1   9  -1  13  -1
M  END
>  <score>  (3) 
-5.632

$$$$
=
     RDKit          3D

 18 17  0  0  0  0  0  0  0  0999 V2000
    2.9550   68.1170   63.3940 C   0  0  0  0  0  0  0  0  0  0  0  0
    5.0640   69.3550   63.1690 O   0  0  0  0  0  1  0  0  0  0  0  0
    4.1280   69.0420   63.9750 C   0  0  0  0  0  0  0  0  0  0  0  0
    4.0000   69.4460   65.1770 O   0  0  0  0  0  0  0  0  0  0  0  0
    3.1610   67.8730   61.9750 O   0  0  0  0  0  0  0  0  0  0  0  0
    1.5900   68.7950   63.5830 C   0  0  0  0  0  0  0  0  0  0  0  0
    0.6550   68.8260   62.3650 C   0  0  0  0  0  0  0  0  0  0  0  0
   -0.3670   68.0700   62.4330 O   0  0  0  0  0  0  0  0  0  0  0  0
    1.0260   69.5200   61.3680 O   0  0  0  0  0  1  0  0  0  0  0  0
    3.1170   66.7760   64.1470 C   0  0  0  0  0  0  0  0  0  0  0  0
    3.9450   65.5910   63.6340 C   0  0  0  0  0  0  0  0  0  0  0  0
    4.8520   65.8290   62.7820 O   0  0  0  0  0  0  0  0  0  0  0  0
    3.5580   64.4370   64.0180 O   0  0  0  0  0  1  0  0  0  0  0  0
    3.7952   67.1218   61.8580 H   0  0  0  0  0  0  0  0  0  0  0  0
    1.0650   68.2653   64.3916 H   0  0  0  0  0  0  0  0  0  0  0  0
    1.8205   69.8496   63.7945 H   0  0  0  0  0  0  0  0  0  0  0  0
    3.5456   67.0355   65.1263 H   0  0  0  0  0  0  0  0  0  0  0  0
    2.0990   66.3679   64.0620 H   0  0  0  0  0  0  0  0  0  0  0  0
  3  2  1  0
  3  1  1  0
  4  3  2  0
  5  1  1  0
  6  1  1  0
  7  6  1  0
  8  7  2  0
  9  7  1  0
 10  1  1  0
 11 10  1  0
 12 11  2  0
 13 11  1  0
  5 14  1  0
  6 15  1  0
  6 16  1  0
 10 17  1  0
 10 18  1  0
M  CHG  3   2  -1   9  -1  13  -1
M  END
>  <score>  (4) 
-5.615

$$$$
=
     RDKit          3D

 18 17  0  0  0  0  0  0  0  0999 V2000
    3.6670   68.6040   64.3990 C   0  0  0  0  0  0  0  0  0  0  0  0
    3.7810   69.4660   66.6960 O   0  0  0  0  0  1  0  0  0  0  0  0
    4.3720   69.4460   65.5670 C   0  0  0  0  0  0  0  0  0  0  0  0
    5.4990   69.9740   65.2950 O   0  0  0  0  0  0  0  0  0  0  0  0
    3.9360   67.1840   64.5690 O   0  0  0  0  0  0  0  0  0  0  0  0
    4.1930   69.0430   63.0260 C   0  0  0  0  0  0  0  0  0  0  0  0
    3.6050   68.3340   61.7960 C   0  0  0  0  0  0  0  0  0  0  0  0
    3.9760   67.1280   61.6230 O   0  0  0  0  0  0  0  0  0  0  0  0
    2.8850   69.0300   61.0160 O   0  0  0  0  0  1  0  0  0  0  0  0
    2.1540   68.8420   64.6160 C   0  0  0  0  0  0  0  0  0  0  0  0
    1.0750   67.7660   64.4400 C   0  0  0  0  0  0  0  0  0  0  0  0
    1.0980   66.7730   65.2270 O   0  0  0  0  0  0  0  0  0  0  0  0
    0.3180   67.9020   63.4220 O   0  0  0  0  0  1  0  0  0  0  0  0
    3.9767   66.9691   65.5345 H   0  0  0  0  0  0  0  0  0  0  0  0
    3.9869   70.1183   62.9197 H   0  0  0  0  0  0  0  0  0  0  0  0
    5.2597   68.7742   63.0287 H   0  0  0  0  0  0  0  0  0  0  0  0
    2.0550   69.1943   65.6533 H   0  0  0  0  0  0  0  0  0  0  0  0
    1.9260   69.5026   63.7665 H   0  0  0  0  0  0  0  0  0  0  0  0
  3  2  1  0
  3  1  1  0
  4  3  2  0
  5  1  1  0
  6  1  1  0
  7  6  1  0
  8  7  2  0
  9  7  1  0
 10  1  1  0
 11 10  1  0
 12 11  2  0
 13 11  1  0
  5 14  1  0
  6 15  1  0
  6 16  1  0
 10 17  1  0
 10 18  1  0
M  CHG  3   2  -1   9  -1  13  -1
M  END
>  <score>  (5) 
-5.551

$$$$
=
     RDKit          3D

 18 17  0  0  0  0  0  0  0  0999 V2000
    3.6740   67.2830   64.1230 C   0  0  0  0  0  0  0  0  0  0  0  0
    3.7470   67.4820   61.6770 O   0  0  0  0  0  1  0  0  0  0  0  0
    3.0800   67.7820   62.7200 C   0  0  0  0  0  0  0  0  0  0  0  0
    1.9560   68.3810   62.7530 O   0  0  0  0  0  0  0  0  0  0  0  0
    5.0760   66.9220   63.9770 O   0  0  0  0  0  0  0  0  0  0  0  0
    2.9020   66.0570   64.6300 C   0  0  0  0  0  0  0  0  0  0  0  0
    3.5500   64.6830   64.4000 C   0  0  0  0  0  0  0  0  0  0  0  0
    3.5470   63.8960   65.4010 O   0  0  0  0  0  0  0  0  0  0  0  0
    4.1100   64.4880   63.2770 O   0  0  0  0  0  1  0  0  0  0  0  0
    3.5840   68.5250   65.0400 C   0  0  0  0  0  0  0  0  0  0  0  0
    4.7100   69.5510   65.2200 C   0  0  0  0  0  0  0  0  0  0  0  0
    4.7540   70.1940   66.3110 O   0  0  0  0  0  0  0  0  0  0  0  0
    5.4360   69.7630   64.1920 O   0  0  0  0  0  1  0  0  0  0  0  0
    5.4847   66.8168   64.8726 H   0  0  0  0  0  0  0  0  0  0  0  0
    2.7586   66.1795   65.7137 H   0  0  0  0  0  0  0  0  0  0  0  0
    1.9739   66.0385   64.0398 H   0  0  0  0  0  0  0  0  0  0  0  0
    2.7163   69.0972   64.6799 H   0  0  0  0  0  0  0  0  0  0  0  0
    3.5798   68.0485   66.0314 H   0  0  0  0  0  0  0  0  0  0  0  0
  3  2  1  0
  3  1  1  0
  4  3  2  0
  5  1  1  0
  6  1  1  0
  7  6  1  0
  8  7  2  0
  9  7  1  0
 10  1  1  0
 11 10  1  0
 12 11  2  0
 13 11  1  0
  5 14  1  0
  6 15  1  0
  6 16  1  0
 10 17  1  0
 10 18  1  0
M  CHG  3   2  -1   9  -1  13  -1
M  END
>  <score>  (6) 
-5.549

$$$$
=
     RDKit          3D

 18 17  0  0  0  0  0  0  0  0999 V2000
    3.3840   67.8110   63.5570 C   0  0  0  0  0  0  0  0  0  0  0  0
    2.9030   68.9720   61.4470 O   0  0  0  0  0  1  0  0  0  0  0  0
    3.4530   67.9440   61.9610 C   0  0  0  0  0  0  0  0  0  0  0  0
    4.1090   67.0460   61.3380 O   0  0  0  0  0  0  0  0  0  0  0  0
    2.0320   67.4720   63.9760 O   0  0  0  0  0  0  0  0  0  0  0  0
    3.7890   69.1310   64.2260 C   0  0  0  0  0  0  0  0  0  0  0  0
    3.8340   69.1480   65.7620 C   0  0  0  0  0  0  0  0  0  0  0  0
    4.9570   69.4500   66.2790 O   0  0  0  0  0  0  0  0  0  0  0  0
    2.7880   68.7700   66.3750 O   0  0  0  0  0  1  0  0  0  0  0  0
    4.3070   66.6130   63.8820 C   0  0  0  0  0  0  0  0  0  0  0  0
    3.8160   65.1790   64.1110 C   0  0  0  0  0  0  0  0  0  0  0  0
    4.1700   64.2920   63.2770 O   0  0  0  0  0  0  0  0  0  0  0  0
    2.9770   65.0260   65.0600 O   0  0  0  0  0  1  0  0  0  0  0  0
    1.9861   67.4605   64.9649 H   0  0  0  0  0  0  0  0  0  0  0  0
    4.7930   69.3938   63.8614 H   0  0  0  0  0  0  0  0  0  0  0  0
    2.9967   69.8443   63.9549 H   0  0  0  0  0  0  0  0  0  0  0  0
    5.0192   66.5523   63.0459 H   0  0  0  0  0  0  0  0  0  0  0  0
    4.6399   66.8800   64.8958 H   0  0  0  0  0  0  0  0  0  0  0  0
  3  2  1  0
  3  1  1  0
  4  3  2  0
  5  1  1  0
  6  1  1  0
  7  6  1  0
  8  7  2  0
  9  7  1  0
 10  1  1  0
 11 10  1  0
 12 11  2  0
 13 11  1  0
  5 14  1  0
  6 15  1  0
  6 16  1  0
 10 17  1  0
 10 18  1  0
M  CHG  3   2  -1   9  -1  13  -1
M  END
>  <score>  (7) 
-5.479

$$$$
=
     RDKit          3D

 18 17  0  0  0  0  0  0  0  0999 V2000
    3.9120   61.2990   70.9000 C   0  0  0  0  0  0  0  0  0  0  0  0
    5.1420   61.1700   73.0210 O   0  0  0  0  0  1  0  0  0  0  0  0
    5.2400   61.0350   71.7580 C   0  0  0  0  0  0  0  0  0  0  0  0
    6.2710   60.6470   71.1170 O   0  0  0  0  0  0  0  0  0  0  0  0
    2.7940   61.6010   71.7800 O   0  0  0  0  0  0  0  0  0  0  0  0
    3.5570   60.0630   70.0620 C   0  0  0  0  0  0  0  0  0  0  0  0
    3.3680   58.7400   70.8200 C   0  0  0  0  0  0  0  0  0  0  0  0
    3.9090   57.7160   70.2890 O   0  0  0  0  0  0  0  0  0  0  0  0
    2.6170   58.7620   71.8440 O   0  0  0  0  0  1  0  0  0  0  0  0
    4.2360   62.5660   70.0730 C   0  0  0  0  0  0  0  0  0  0  0  0
    3.2560   63.2430   69.1070 C   0  0  0  0  0  0  0  0  0  0  0  0
    2.2070   63.7580   69.5950 O   0  0  0  0  0  0  0  0  0  0  0  0
    3.5240   63.1130   67.8660 O   0  0  0  0  0  1  0  0  0  0  0  0
    3.0855   61.5223   72.7228 H   0  0  0  0  0  0  0  0  0  0  0  0
    2.6177   60.2794   69.5320 H   0  0  0  0  0  0  0  0  0  0  0  0
    4.4280   59.8984   69.4107 H   0  0  0  0  0  0  0  0  0  0  0  0
    4.5088   63.3378   70.8078 H   0  0  0  0  0  0  0  0  0  0  0  0
    4.9775   62.1656   69.3660 H   0  0  0  0  0  0  0  0  0  0  0  0
  3  2  1  0
  3  1  1  0
  4  3  2  0
  5  1  1  0
  6  1  1  0
  7  6  1  0
  8  7  2  0
  9  7  1  0
 10  1  1  0
 11 10  1  0
 12 11  2  0
 13 11  1  0
  5 14  1  0
  6 15  1  0
  6 16  1  0
 10 17  1  0
 10 18  1  0
M  CHG  3   2  -1   9  -1  13  -1
M  END
>  <score>  (8) 
-5.257

$$$$
=
     RDKit          3D

 18 17  0  0  0  0  0  0  0  0999 V2000
    3.0660   62.6920   70.6080 C   0  0  0  0  0  0  0  0  0  0  0  0
    3.0060   60.7340   69.1280 O   0  0  0  0  0  1  0  0  0  0  0  0
    3.1040   62.0030   69.1610 C   0  0  0  0  0  0  0  0  0  0  0  0
    3.1630   62.7840   68.1550 O   0  0  0  0  0  0  0  0  0  0  0  0
    2.3050   61.8700   71.5370 O   0  0  0  0  0  0  0  0  0  0  0  0
    2.4130   64.0780   70.5290 C   0  0  0  0  0  0  0  0  0  0  0  0
    0.9100   64.1580   70.8390 C   0  0  0  0  0  0  0  0  0  0  0  0
    0.6080   64.5030   72.0270 O   0  0  0  0  0  0  0  0  0  0  0  0
    0.1100   63.7840   69.9270 O   0  0  0  0  0  1  0  0  0  0  0  0
    4.5440   62.7010   71.0660 C   0  0  0  0  0  0  0  0  0  0  0  0
    5.2410   61.5260   71.7630 C   0  0  0  0  0  0  0  0  0  0  0  0
    5.9200   60.7320   71.0450 O   0  0  0  0  0  0  0  0  0  0  0  0
    4.9680   61.3750   73.0000 O   0  0  0  0  0  1  0  0  0  0  0  0
    2.5372   62.1208   72.4661 H   0  0  0  0  0  0  0  0  0  0  0  0
    2.9347   64.7322   71.2431 H   0  0  0  0  0  0  0  0  0  0  0  0
    2.5043   64.3779   69.4746 H   0  0  0  0  0  0  0  0  0  0  0  0
    5.1341   62.9002   70.1593 H   0  0  0  0  0  0  0  0  0  0  0  0
    4.4998   63.4305   71.8881 H   0  0  0  0  0  0  0  0  0  0  0  0
  3  2  1  0
  3  1  1  0
  4  3  2  0
  5  1  1  0
  6  1  1  0
  7  6  1  0
  8  7  2  0
  9  7  1  0
 10  1  1  0
 11 10  1  0
 12 11  2  0
 13 11  1  0
  5 14  1  0
  6 15  1  0
  6 16  1  0
 10 17  1  0
 10 18  1  0
M  CHG  3   2  -1   9  -1  13  -1
M  END
>  <score>  (9) 
-5.21

$$$$
