=
     RDKit          3D

 30 31  0  0  0  0  0  0  0  0999 V2000
    3.0930   69.0470   65.9170 C   0  0  0  0  0  0  0  0  0  0  0  0
    4.3540   69.3860   65.4070 C   0  0  0  0  0  0  0  0  0  0  0  0
    5.2700   70.0920   66.1970 C   0  0  0  0  0  0  0  0  0  0  0  0
    4.9220   70.4740   67.5020 C   0  0  0  0  0  0  0  0  0  0  0  0
    3.6650   70.1520   68.0260 C   0  0  0  0  0  0  0  0  0  0  0  0
    2.7630   69.4400   67.2200 C   0  0  0  0  0  0  0  0  0  0  0  0
    1.4900   69.0560   67.8040 N   0  0  0  0  0  4  0  0  0  0  0  0
    0.5390   69.8320   67.6450 O   0  0  0  0  0  0  0  0  0  0  0  0
    1.4740   68.0120   68.4670 O   0  0  0  0  0  1  0  0  0  0  0  0
    5.8880   71.2130   68.3250 N   0  0  0  0  0  4  0  0  0  0  0  0
    6.0280   72.4220   68.0940 O   0  0  0  0  0  0  0  0  0  0  0  0
    6.4980   70.5840   69.2000 O   0  0  0  0  0  1  0  0  0  0  0  0
    1.4580   69.0840   64.2570 O   0  0  0  0  0  0  0  0  0  0  0  0
    2.0970   68.3970   65.0400 C   0  0  0  0  0  0  0  0  0  0  0  0
    1.8950   66.8930   65.1170 C   0  0  0  0  0  0  0  0  0  0  0  0
    0.8230   66.4800   65.5490 O   0  0  0  0  0  0  0  0  0  0  0  0
    2.9530   65.9500   64.6660 C   0  0  0  0  0  0  0  0  0  0  0  0
    3.7570   66.1890   63.5460 C   0  0  0  0  0  0  0  0  0  0  0  0
    4.7250   65.2560   63.1650 C   0  0  0  0  0  0  0  0  0  0  0  0
    4.8960   64.0810   63.8950 C   0  0  0  0  0  0  0  0  0  0  0  0
    4.0980   63.8340   65.0090 C   0  0  0  0  0  0  0  0  0  0  0  0
    3.1290   64.7620   65.3920 C   0  0  0  0  0  0  0  0  0  0  0  0
    4.6254   69.0961   64.3812 H   0  0  0  0  0  0  0  0  0  0  0  0
    6.2616   70.3470   65.7949 H   0  0  0  0  0  0  0  0  0  0  0  0
    3.3896   70.4506   69.0482 H   0  0  0  0  0  0  0  0  0  0  0  0
    3.6268   67.1134   62.9642 H   0  0  0  0  0  0  0  0  0  0  0  0
    5.3552   65.4498   62.2845 H   0  0  0  0  0  0  0  0  0  0  0  0
    5.6600   63.3501   63.5916 H   0  0  0  0  0  0  0  0  0  0  0  0
    4.2315   62.9076   65.5869 H   0  0  0  0  0  0  0  0  0  0  0  0
    2.4979   64.5608   66.2702 H   0  0  0  0  0  0  0  0  0  0  0  0
  2  1  2  0
  3  2  1  0
  4  3  2  0
  5  4  1  0
  6  5  2  0
  6  1  1  0
  7  6  1  0
  8  7  2  0
  9  7  1  0
 10  4  1  0
 11 10  2  0
 12 10  1  0
 14 13  2  0
 14  1  1  0
 15 14  1  0
 16 15  2  0
 17 15  1  0
 18 17  2  0
 19 18  1  0
 20 19  2  0
 21 20  1  0
 22 21  2  0
 22 17  1  0
  2 23  1  0
  3 24  1  0
  5 25  1  0
 18 26  1  0
 19 27  1  0
 20 28  1  0
 21 29  1  0
 22 30  1  0
M  CHG  4   7   1   9  -1  10   1  12  -1
M  END
>  <score>  (1) 
-9.691

$$$$
=
     RDKit          3D

 30 31  0  0  0  0  0  0  0  0999 V2000
    3.3860   69.3510   66.3080 C   0  0  0  0  0  0  0  0  0  0  0  0
    3.0090   69.8180   67.5750 C   0  0  0  0  0  0  0  0  0  0  0  0
    3.9690   70.3340   68.4540 C   0  0  0  0  0  0  0  0  0  0  0  0
    5.3190   70.3730   68.0720 C   0  0  0  0  0  0  0  0  0  0  0  0
    5.7170   69.9040   66.8150 C   0  0  0  0  0  0  0  0  0  0  0  0
    4.7390   69.3960   65.9470 C   0  0  0  0  0  0  0  0  0  0  0  0
    5.1600   68.9760   64.6220 N   0  0  0  0  0  4  0  0  0  0  0  0
    5.3100   67.7630   64.4350 O   0  0  0  0  0  0  0  0  0  0  0  0
    5.3950   69.8730   63.8030 O   0  0  0  0  0  1  0  0  0  0  0  0
    6.3210   70.9160   68.9990 N   0  0  0  0  0  4  0  0  0  0  0  0
    6.3190   70.4830   70.1590 O   0  0  0  0  0  0  0  0  0  0  0  0
    7.1060   71.7690   68.5620 O   0  0  0  0  0  1  0  0  0  0  0  0
    2.2500   69.1180   64.2860 O   0  0  0  0  0  0  0  0  0  0  0  0
    2.3820   68.7120   65.4310 C   0  0  0  0  0  0  0  0  0  0  0  0
    1.5480   67.5570   65.9600 C   0  0  0  0  0  0  0  0  0  0  0  0
    2.1060   66.4770   66.1260 O   0  0  0  0  0  0  0  0  0  0  0  0
    0.1070   67.7330   66.2850 C   0  0  0  0  0  0  0  0  0  0  0  0
   -0.7140   68.6540   65.6250 C   0  0  0  0  0  0  0  0  0  0  0  0
   -2.0580   68.7820   65.9870 C   0  0  0  0  0  0  0  0  0  0  0  0
   -2.5900   67.9960   67.0070 C   0  0  0  0  0  0  0  0  0  0  0  0
   -1.7790   67.0790   67.6710 C   0  0  0  0  0  0  0  0  0  0  0  0
   -0.4360   66.9490   67.3150 C   0  0  0  0  0  0  0  0  0  0  0  0
    1.9529   69.7788   67.8803 H   0  0  0  0  0  0  0  0  0  0  0  0
    3.6655   70.7084   69.4428 H   0  0  0  0  0  0  0  0  0  0  0  0
    6.7746   69.9331   66.5139 H   0  0  0  0  0  0  0  0  0  0  0  0
   -0.3008   69.2787   64.8194 H   0  0  0  0  0  0  0  0  0  0  0  0
   -2.6989   69.5070   65.4639 H   0  0  0  0  0  0  0  0  0  0  0  0
   -3.6486   68.0996   67.2873 H   0  0  0  0  0  0  0  0  0  0  0  0
   -2.1971   66.4571   68.4762 H   0  0  0  0  0  0  0  0  0  0  0  0
    0.2019   66.2267   67.8455 H   0  0  0  0  0  0  0  0  0  0  0  0
  2  1  2  0
  3  2  1  0
  4  3  2  0
  5  4  1  0
  6  5  2  0
  6  1  1  0
  7  6  1  0
  8  7  2  0
  9  7  1  0
 10  4  1  0
 11 10  2  0
 12 10  1  0
 14 13  2  0
 14  1  1  0
 15 14  1  0
 16 15  2  0
 17 15  1  0
 18 17  2  0
 19 18  1  0
 20 19  2  0
 21 20  1  0
 22 21  2  0
 22 17  1  0
  2 23  1  0
  3 24  1  0
  5 25  1  0
 18 26  1  0
 19 27  1  0
 20 28  1  0
 21 29  1  0
 22 30  1  0
M  CHG  4   7   1   9  -1  10   1  12  -1
M  END
>  <score>  (2) 
-9.306

$$$$
=
     RDKit          3D

 30 31  0  0  0  0  0  0  0  0999 V2000
    1.2900   68.4850   64.9110 C   0  0  0  0  0  0  0  0  0  0  0  0
    2.1490   68.7180   63.8280 C   0  0  0  0  0  0  0  0  0  0  0  0
    1.6390   69.1680   62.6040 C   0  0  0  0  0  0  0  0  0  0  0  0
    0.2590   69.3750   62.4530 C   0  0  0  0  0  0  0  0  0  0  0  0
   -0.6160   69.1400   63.5210 C   0  0  0  0  0  0  0  0  0  0  0  0
   -0.0840   68.6940   64.7400 C   0  0  0  0  0  0  0  0  0  0  0  0
   -0.9980   68.5200   65.8550 N   0  0  0  0  0  4  0  0  0  0  0  0
   -1.2430   67.3610   66.2090 O   0  0  0  0  0  0  0  0  0  0  0  0
   -1.5070   69.5470   66.3230 O   0  0  0  0  0  1  0  0  0  0  0  0
   -0.2700   69.8470   61.1670 N   0  0  0  0  0  4  0  0  0  0  0  0
    0.4360   69.6800   60.1640 O   0  0  0  0  0  0  0  0  0  0  0  0
   -1.3880   70.3790   61.1660 O   0  0  0  0  0  1  0  0  0  0  0  0
    2.0550   66.7110   66.2140 O   0  0  0  0  0  0  0  0  0  0  0  0
    1.8260   67.9100   66.1620 C   0  0  0  0  0  0  0  0  0  0  0  0
    2.0950   68.8170   67.3510 C   0  0  0  0  0  0  0  0  0  0  0  0
    1.2160   68.9240   68.2010 O   0  0  0  0  0  0  0  0  0  0  0  0
    3.3890   69.5370   67.4940 C   0  0  0  0  0  0  0  0  0  0  0  0
    3.7220   70.2830   68.6300 C   0  0  0  0  0  0  0  0  0  0  0  0
    4.9490   70.9490   68.6970 C   0  0  0  0  0  0  0  0  0  0  0  0
    5.8480   70.8780   67.6340 C   0  0  0  0  0  0  0  0  0  0  0  0
    5.5230   70.1400   66.4990 C   0  0  0  0  0  0  0  0  0  0  0  0
    4.2980   69.4740   66.4260 C   0  0  0  0  0  0  0  0  0  0  0  0
    3.2297   68.5464   63.9403 H   0  0  0  0  0  0  0  0  0  0  0  0
    2.3196   69.3592   61.7612 H   0  0  0  0  0  0  0  0  0  0  0  0
   -1.6980   69.3018   63.4063 H   0  0  0  0  0  0  0  0  0  0  0  0
    3.0168   70.3454   69.4719 H   0  0  0  0  0  0  0  0  0  0  0  0
    5.2066   71.5323   69.5933 H   0  0  0  0  0  0  0  0  0  0  0  0
    6.8123   71.4040   67.6918 H   0  0  0  0  0  0  0  0  0  0  0  0
    6.2315   70.0816   65.6596 H   0  0  0  0  0  0  0  0  0  0  0  0
    4.0434   68.8959   65.5254 H   0  0  0  0  0  0  0  0  0  0  0  0
  2  1  2  0
  3  2  1  0
  4  3  2  0
  5  4  1  0
  6  5  2  0
  6  1  1  0
  7  6  1  0
  8  7  2  0
  9  7  1  0
 10  4  1  0
 11 10  2  0
 12 10  1  0
 14 13  2  0
 14  1  1  0
 15 14  1  0
 16 15  2  0
 17 15  1  0
 18 17  2  0
 19 18  1  0
 20 19  2  0
 21 20  1  0
 22 21  2  0
 22 17  1  0
  2 23  1  0
  3 24  1  0
  5 25  1  0
 18 26  1  0
 19 27  1  0
 20 28  1  0
 21 29  1  0
 22 30  1  0
M  CHG  4   7   1   9  -1  10   1  12  -1
M  END
>  <score>  (3) 
-9.002

$$$$
=
     RDKit          3D

 30 31  0  0  0  0  0  0  0  0999 V2000
    1.7790   67.8440   65.3180 C   0  0  0  0  0  0  0  0  0  0  0  0
    1.3820   67.4840   66.6130 C   0  0  0  0  0  0  0  0  0  0  0  0
    0.0490   67.6430   67.0150 C   0  0  0  0  0  0  0  0  0  0  0  0
   -0.8930   68.1770   66.1220 C   0  0  0  0  0  0  0  0  0  0  0  0
   -0.5140   68.5500   64.8260 C   0  0  0  0  0  0  0  0  0  0  0  0
    0.8250   68.3780   64.4430 C   0  0  0  0  0  0  0  0  0  0  0  0
    1.1860   68.7070   63.0750 N   0  0  0  0  0  4  0  0  0  0  0  0
    1.8250   67.8600   62.4400 O   0  0  0  0  0  0  0  0  0  0  0  0
    0.8770   69.8360   62.6740 O   0  0  0  0  0  1  0  0  0  0  0  0
   -2.2890   68.3400   66.5480 N   0  0  0  0  0  4  0  0  0  0  0  0
   -3.0500   68.9530   65.7860 O   0  0  0  0  0  0  0  0  0  0  0  0
   -2.6180   67.8530   67.6370 O   0  0  0  0  0  1  0  0  0  0  0  0
    3.6750   66.6970   64.5980 O   0  0  0  0  0  0  0  0  0  0  0  0
    3.2060   67.7720   64.9410 C   0  0  0  0  0  0  0  0  0  0  0  0
    4.0570   69.0300   64.9710 C   0  0  0  0  0  0  0  0  0  0  0  0
    4.3360   69.5590   63.8990 O   0  0  0  0  0  0  0  0  0  0  0  0
    4.5210   69.6160   66.2580 C   0  0  0  0  0  0  0  0  0  0  0  0
    3.6660   69.8420   67.3420 C   0  0  0  0  0  0  0  0  0  0  0  0
    4.1610   70.4080   68.5200 C   0  0  0  0  0  0  0  0  0  0  0  0
    5.5070   70.7550   68.6230 C   0  0  0  0  0  0  0  0  0  0  0  0
    6.3640   70.5360   67.5470 C   0  0  0  0  0  0  0  0  0  0  0  0
    5.8740   69.9710   66.3680 C   0  0  0  0  0  0  0  0  0  0  0  0
    2.1207   67.0744   67.3176 H   0  0  0  0  0  0  0  0  0  0  0  0
   -0.2588   67.3496   68.0295 H   0  0  0  0  0  0  0  0  0  0  0  0
   -1.2500   68.9686   64.1238 H   0  0  0  0  0  0  0  0  0  0  0  0
    2.6019   69.5736   67.2670 H   0  0  0  0  0  0  0  0  0  0  0  0
    3.4849   70.5805   69.3703 H   0  0  0  0  0  0  0  0  0  0  0  0
    5.8917   71.2009   69.5521 H   0  0  0  0  0  0  0  0  0  0  0  0
    7.4268   70.8082   67.6261 H   0  0  0  0  0  0  0  0  0  0  0  0
    6.5534   69.8030   65.5194 H   0  0  0  0  0  0  0  0  0  0  0  0
  2  1  2  0
  3  2  1  0
  4  3  2  0
  5  4  1  0
  6  5  2  0
  6  1  1  0
  7  6  1  0
  8  7  2  0
  9  7  1  0
 10  4  1  0
 11 10  2  0
 12 10  1  0
 14 13  2  0
 14  1  1  0
 15 14  1  0
 16 15  2  0
 17 15  1  0
 18 17  2  0
 19 18  1  0
 20 19  2  0
 21 20  1  0
 22 21  2  0
 22 17  1  0
  2 23  1  0
  3 24  1  0
  5 25  1  0
 18 26  1  0
 19 27  1  0
 20 28  1  0
 21 29  1  0
 22 30  1  0
M  CHG  4   7   1   9  -1  10   1  12  -1
M  END
>  <score>  (4) 
-8.733

$$$$
=
     RDKit          3D

 30 31  0  0  0  0  0  0  0  0999 V2000
    3.2680   68.8550   66.2330 C   0  0  0  0  0  0  0  0  0  0  0  0
    2.9400   69.3790   67.4910 C   0  0  0  0  0  0  0  0  0  0  0  0
    3.8450   70.2020   68.1720 C   0  0  0  0  0  0  0  0  0  0  0  0
    5.0930   70.4950   67.6010 C   0  0  0  0  0  0  0  0  0  0  0  0
    5.4420   69.9750   66.3490 C   0  0  0  0  0  0  0  0  0  0  0  0
    4.5190   69.1560   65.6810 C   0  0  0  0  0  0  0  0  0  0  0  0
    4.8710   68.6800   64.3550 N   0  0  0  0  0  4  0  0  0  0  0  0
    5.2460   67.5060   64.2570 O   0  0  0  0  0  0  0  0  0  0  0  0
    4.8280   69.5080   63.4360 O   0  0  0  0  0  1  0  0  0  0  0  0
    6.0370   71.3600   68.3210 N   0  0  0  0  0  4  0  0  0  0  0  0
    5.9810   72.5770   68.0960 O   0  0  0  0  0  0  0  0  0  0  0  0
    6.8260   70.8210   69.1080 O   0  0  0  0  0  1  0  0  0  0  0  0
    2.6850   66.7320   65.4670 O   0  0  0  0  0  0  0  0  0  0  0  0
    2.3510   67.9030   65.5720 C   0  0  0  0  0  0  0  0  0  0  0  0
    1.0100   68.3910   65.0490 C   0  0  0  0  0  0  0  0  0  0  0  0
    0.0620   68.4050   65.8290 O   0  0  0  0  0  0  0  0  0  0  0  0
    0.8520   68.8540   63.6450 C   0  0  0  0  0  0  0  0  0  0  0  0
   -0.3190   69.4530   63.1690 C   0  0  0  0  0  0  0  0  0  0  0  0
   -0.4100   69.8550   61.8330 C   0  0  0  0  0  0  0  0  0  0  0  0
    0.6630   69.6610   60.9660 C   0  0  0  0  0  0  0  0  0  0  0  0
    1.8320   69.0630   61.4300 C   0  0  0  0  0  0  0  0  0  0  0  0
    1.9270   68.6590   62.7630 C   0  0  0  0  0  0  0  0  0  0  0  0
    1.9666   69.1424   67.9455 H   0  0  0  0  0  0  0  0  0  0  0  0
    3.5779   70.6188   69.1543 H   0  0  0  0  0  0  0  0  0  0  0  0
    6.4191   70.2036   65.8984 H   0  0  0  0  0  0  0  0  0  0  0  0
   -1.1706   69.6082   63.8477 H   0  0  0  0  0  0  0  0  0  0  0  0
   -1.3331   70.3266   61.4648 H   0  0  0  0  0  0  0  0  0  0  0  0
    0.5870   69.9798   59.9160 H   0  0  0  0  0  0  0  0  0  0  0  0
    2.6801   68.9091   60.7466 H   0  0  0  0  0  0  0  0  0  0  0  0
    2.8509   68.1844   63.1250 H   0  0  0  0  0  0  0  0  0  0  0  0
  2  1  2  0
  3  2  1  0
  4  3  2  0
  5  4  1  0
  6  5  2  0
  6  1  1  0
  7  6  1  0
  8  7  2  0
  9  7  1  0
 10  4  1  0
 11 10  2  0
 12 10  1  0
 14 13  2  0
 14  1  1  0
 15 14  1  0
 16 15  2  0
 17 15  1  0
 18 17  2  0
 19 18  1  0
 20 19  2  0
 21 20  1  0
 22 21  2  0
 22 17  1  0
  2 23  1  0
  3 24  1  0
  5 25  1  0
 18 26  1  0
 19 27  1  0
 20 28  1  0
 21 29  1  0
 22 30  1  0
M  CHG  4   7   1   9  -1  10   1  12  -1
M  END
>  <score>  (5) 
-8.725

$$$$
=
     RDKit          3D

 30 31  0  0  0  0  0  0  0  0999 V2000
    2.3340   68.3730   66.0570 C   0  0  0  0  0  0  0  0  0  0  0  0
    3.5510   68.5450   65.3830 C   0  0  0  0  0  0  0  0  0  0  0  0
    4.5690   69.3230   65.9480 C   0  0  0  0  0  0  0  0  0  0  0  0
    4.3680   69.9460   67.1900 C   0  0  0  0  0  0  0  0  0  0  0  0
    3.1570   69.7920   67.8750 C   0  0  0  0  0  0  0  0  0  0  0  0
    2.1520   69.0040   67.2940 C   0  0  0  0  0  0  0  0  0  0  0  0
    0.9280   68.8010   68.0490 N   0  0  0  0  0  4  0  0  0  0  0  0
    0.0590   69.6770   67.9640 O   0  0  0  0  0  0  0  0  0  0  0  0
    0.8790   67.7950   68.7690 O   0  0  0  0  0  1  0  0  0  0  0  0
    5.4400   70.7600   67.7770 N   0  0  0  0  0  4  0  0  0  0  0  0
    5.5920   70.7030   69.0060 O   0  0  0  0  0  0  0  0  0  0  0  0
    6.1250   71.4490   67.0110 O   0  0  0  0  0  1  0  0  0  0  0  0
    1.1710   66.4240   65.5280 O   0  0  0  0  0  0  0  0  0  0  0  0
    1.2300   67.6380   65.4050 C   0  0  0  0  0  0  0  0  0  0  0  0
    0.1860   68.4020   64.6090 C   0  0  0  0  0  0  0  0  0  0  0  0
   -0.8970   68.6190   65.1450 O   0  0  0  0  0  0  0  0  0  0  0  0
    0.4700   68.8900   63.2330 C   0  0  0  0  0  0  0  0  0  0  0  0
   -0.4490   69.6340   62.4840 C   0  0  0  0  0  0  0  0  0  0  0  0
   -0.1270   70.0520   61.1900 C   0  0  0  0  0  0  0  0  0  0  0  0
    1.1090   69.7290   60.6340 C   0  0  0  0  0  0  0  0  0  0  0  0
    2.0290   68.9860   61.3700 C   0  0  0  0  0  0  0  0  0  0  0  0
    1.7110   68.5660   62.6630 C   0  0  0  0  0  0  0  0  0  0  0  0
    3.7072   68.0663   64.4050 H   0  0  0  0  0  0  0  0  0  0  0  0
    5.5256   69.4460   65.4190 H   0  0  0  0  0  0  0  0  0  0  0  0
    2.9967   70.2786   68.8484 H   0  0  0  0  0  0  0  0  0  0  0  0
   -1.4279   69.8905   62.9153 H   0  0  0  0  0  0  0  0  0  0  0  0
   -0.8527   70.6387   60.6077 H   0  0  0  0  0  0  0  0  0  0  0  0
    1.3580   70.0603   59.6151 H   0  0  0  0  0  0  0  0  0  0  0  0
    3.0055   68.7303   60.9328 H   0  0  0  0  0  0  0  0  0  0  0  0
    2.4389   67.9764   63.2396 H   0  0  0  0  0  0  0  0  0  0  0  0
  2  1  2  0
  3  2  1  0
  4  3  2  0
  5  4  1  0
  6  5  2  0
  6  1  1  0
  7  6  1  0
  8  7  2  0
  9  7  1  0
 10  4  1  0
 11 10  2  0
 12 10  1  0
 14 13  2  0
 14  1  1  0
 15 14  1  0
 16 15  2  0
 17 15  1  0
 18 17  2  0
 19 18  1  0
 20 19  2  0
 21 20  1  0
 22 21  2  0
 22 17  1  0
  2 23  1  0
  3 24  1  0
  5 25  1  0
 18 26  1  0
 19 27  1  0
 20 28  1  0
 21 29  1  0
 22 30  1  0
M  CHG  4   7   1   9  -1  10   1  12  -1
M  END
>  <score>  (6) 
-8.376

$$$$
=
     RDKit          3D

 30 31  0  0  0  0  0  0  0  0999 V2000
    2.0860   68.4220   63.8980 C   0  0  0  0  0  0  0  0  0  0  0  0
    0.7550   68.7750   64.1580 C   0  0  0  0  0  0  0  0  0  0  0  0
   -0.0560   69.2820   63.1350 C   0  0  0  0  0  0  0  0  0  0  0  0
    0.4680   69.4510   61.8440 C   0  0  0  0  0  0  0  0  0  0  0  0
    1.7980   69.1130   61.5660 C   0  0  0  0  0  0  0  0  0  0  0  0
    2.5920   68.6020   62.6040 C   0  0  0  0  0  0  0  0  0  0  0  0
    3.9480   68.1930   62.2830 N   0  0  0  0  0  4  0  0  0  0  0  0
    4.8490   69.0170   62.4820 O   0  0  0  0  0  0  0  0  0  0  0  0
    4.0860   67.0730   61.7750 O   0  0  0  0  0  1  0  0  0  0  0  0
   -0.3870   69.9830   60.7750 N   0  0  0  0  0  4  0  0  0  0  0  0
   -1.4230   70.5730   61.1130 O   0  0  0  0  0  0  0  0  0  0  0  0
   -0.0190   69.8130   59.6060 O   0  0  0  0  0  1  0  0  0  0  0  0
    3.7260   67.0520   64.8280 O   0  0  0  0  0  0  0  0  0  0  0  0
    2.9610   67.9890   65.0070 C   0  0  0  0  0  0  0  0  0  0  0  0
    2.9070   68.7200   66.3380 C   0  0  0  0  0  0  0  0  0  0  0  0
    1.8940   68.5940   67.0200 O   0  0  0  0  0  0  0  0  0  0  0  0
    4.0500   69.5470   66.8100 C   0  0  0  0  0  0  0  0  0  0  0  0
    4.0940   70.1260   68.0830 C   0  0  0  0  0  0  0  0  0  0  0  0
    5.1910   70.9040   68.4620 C   0  0  0  0  0  0  0  0  0  0  0  0
    6.2470   71.1110   67.5770 C   0  0  0  0  0  0  0  0  0  0  0  0
    6.2100   70.5410   66.3070 C   0  0  0  0  0  0  0  0  0  0  0  0
    5.1160   69.7640   65.9230 C   0  0  0  0  0  0  0  0  0  0  0  0
    0.3449   68.6532   65.1714 H   0  0  0  0  0  0  0  0  0  0  0  0
   -1.1030   69.5476   63.3432 H   0  0  0  0  0  0  0  0  0  0  0  0
    2.2117   69.2452   60.5554 H   0  0  0  0  0  0  0  0  0  0  0  0
    3.2634   69.9684   68.7868 H   0  0  0  0  0  0  0  0  0  0  0  0
    5.2211   71.3555   69.4646 H   0  0  0  0  0  0  0  0  0  0  0  0
    7.1085   71.7237   67.8810 H   0  0  0  0  0  0  0  0  0  0  0  0
    7.0427   70.7031   65.6067 H   0  0  0  0  0  0  0  0  0  0  0  0
    5.0890   69.3183   64.9177 H   0  0  0  0  0  0  0  0  0  0  0  0
  2  1  2  0
  3  2  1  0
  4  3  2  0
  5  4  1  0
  6  5  2  0
  6  1  1  0
  7  6  1  0
  8  7  2  0
  9  7  1  0
 10  4  1  0
 11 10  2  0
 12 10  1  0
 14 13  2  0
 14  1  1  0
 15 14  1  0
 16 15  2  0
 17 15  1  0
 18 17  2  0
 19 18  1  0
 20 19  2  0
 21 20  1  0
 22 21  2  0
 22 17  1  0
  2 23  1  0
  3 24  1  0
  5 25  1  0
 18 26  1  0
 19 27  1  0
 20 28  1  0
 21 29  1  0
 22 30  1  0
M  CHG  4   7   1   9  -1  10   1  12  -1
M  END
>  <score>  (7) 
-8.313

$$$$
=
     RDKit          3D

 30 31  0  0  0  0  0  0  0  0999 V2000
    1.2010   68.2360   65.6410 C   0  0  0  0  0  0  0  0  0  0  0  0
    0.4750   68.6320   64.5090 C   0  0  0  0  0  0  0  0  0  0  0  0
   -0.9110   68.8200   64.5870 C   0  0  0  0  0  0  0  0  0  0  0  0
   -1.5810   68.5980   65.8000 C   0  0  0  0  0  0  0  0  0  0  0  0
   -0.8740   68.1940   66.9400 C   0  0  0  0  0  0  0  0  0  0  0  0
    0.5140   68.0160   66.8410 C   0  0  0  0  0  0  0  0  0  0  0  0
    1.2390   67.6630   68.0490 N   0  0  0  0  0  4  0  0  0  0  0  0
    1.2960   66.4630   68.3430 O   0  0  0  0  0  0  0  0  0  0  0  0
    1.6900   68.5990   68.7220 O   0  0  0  0  0  1  0  0  0  0  0  0
   -3.0340   68.7970   65.8760 N   0  0  0  0  0  4  0  0  0  0  0  0
   -3.6140   68.3850   66.8900 O   0  0  0  0  0  0  0  0  0  0  0  0
   -3.5870   69.3650   64.9250 O   0  0  0  0  0  1  0  0  0  0  0  0
    3.0210   66.7800   65.6220 O   0  0  0  0  0  0  0  0  0  0  0  0
    2.6440   67.9390   65.5210 C   0  0  0  0  0  0  0  0  0  0  0  0
    3.6250   69.0690   65.2620 C   0  0  0  0  0  0  0  0  0  0  0  0
    3.7210   69.4920   64.1140 O   0  0  0  0  0  0  0  0  0  0  0  0
    4.4310   69.6580   66.3650 C   0  0  0  0  0  0  0  0  0  0  0  0
    5.8190   69.8200   66.2890 C   0  0  0  0  0  0  0  0  0  0  0  0
    6.5210   70.3680   67.3660 C   0  0  0  0  0  0  0  0  0  0  0  0
    5.8470   70.7550   68.5230 C   0  0  0  0  0  0  0  0  0  0  0  0
    4.4660   70.5940   68.6070 C   0  0  0  0  0  0  0  0  0  0  0  0
    3.7610   70.0460   67.5350 C   0  0  0  0  0  0  0  0  0  0  0  0
    0.9965   68.7960   63.5544 H   0  0  0  0  0  0  0  0  0  0  0  0
   -1.4737   69.1414   63.6982 H   0  0  0  0  0  0  0  0  0  0  0  0
   -1.3961   68.0201   67.8924 H   0  0  0  0  0  0  0  0  0  0  0  0
    6.3584   69.5155   65.3800 H   0  0  0  0  0  0  0  0  0  0  0  0
    7.6117   70.4946   67.3002 H   0  0  0  0  0  0  0  0  0  0  0  0
    6.4042   71.1865   69.3676 H   0  0  0  0  0  0  0  0  0  0  0  0
    3.9312   70.8989   69.5186 H   0  0  0  0  0  0  0  0  0  0  0  0
    2.6710   69.9171   67.6077 H   0  0  0  0  0  0  0  0  0  0  0  0
  2  1  2  0
  3  2  1  0
  4  3  2  0
  5  4  1  0
  6  5  2  0
  6  1  1  0
  7  6  1  0
  8  7  2  0
  9  7  1  0
 10  4  1  0
 11 10  2  0
 12 10  1  0
 14 13  2  0
 14  1  1  0
 15 14  1  0
 16 15  2  0
 17 15  1  0
 18 17  2  0
 19 18  1  0
 20 19  2  0
 21 20  1  0
 22 21  2  0
 22 17  1  0
  2 23  1  0
  3 24  1  0
  5 25  1  0
 18 26  1  0
 19 27  1  0
 20 28  1  0
 21 29  1  0
 22 30  1  0
M  CHG  4   7   1   9  -1  10   1  12  -1
M  END
>  <score>  (8) 
-8.1

$$$$
=
     RDKit          3D

 30 31  0  0  0  0  0  0  0  0999 V2000
    2.3310   61.8150   70.7810 C   0  0  0  0  0  0  0  0  0  0  0  0
    1.1750   61.7260   71.5690 C   0  0  0  0  0  0  0  0  0  0  0  0
    0.4420   62.8770   71.8810 C   0  0  0  0  0  0  0  0  0  0  0  0
    0.8710   64.1300   71.4170 C   0  0  0  0  0  0  0  0  0  0  0  0
    2.0280   64.2400   70.6350 C   0  0  0  0  0  0  0  0  0  0  0  0
    2.7460   63.0740   70.3290 C   0  0  0  0  0  0  0  0  0  0  0  0
    3.9040   63.1990   69.4630 N   0  0  0  0  0  4  0  0  0  0  0  0
    4.9920   63.4310   70.0040 O   0  0  0  0  0  0  0  0  0  0  0  0
    3.6990   63.1250   68.2440 O   0  0  0  0  0  1  0  0  0  0  0  0
    0.0980   65.3340   71.7470 N   0  0  0  0  0  4  0  0  0  0  0  0
   -0.3760   65.4110   72.8900 O   0  0  0  0  0  0  0  0  0  0  0  0
   -0.0300   66.1950   70.8680 O   0  0  0  0  0  1  0  0  0  0  0  0
    3.1180   60.0710   69.4500 O   0  0  0  0  0  0  0  0  0  0  0  0
    3.1540   60.6100   70.5460 C   0  0  0  0  0  0  0  0  0  0  0  0
    4.0390   60.0750   71.6600 C   0  0  0  0  0  0  0  0  0  0  0  0
    5.2220   60.3990   71.6580 O   0  0  0  0  0  0  0  0  0  0  0  0
    3.4860   59.2010   72.7290 C   0  0  0  0  0  0  0  0  0  0  0  0
    3.9600   59.2190   74.0460 C   0  0  0  0  0  0  0  0  0  0  0  0
    3.4070   58.3620   75.0020 C   0  0  0  0  0  0  0  0  0  0  0  0
    2.3850   57.4830   74.6530 C   0  0  0  0  0  0  0  0  0  0  0  0
    1.9090   57.4560   73.3440 C   0  0  0  0  0  0  0  0  0  0  0  0
    2.4590   58.3090   72.3850 C   0  0  0  0  0  0  0  0  0  0  0  0
    0.8423   60.7469   71.9440 H   0  0  0  0  0  0  0  0  0  0  0  0
   -0.4706   62.7993   72.4901 H   0  0  0  0  0  0  0  0  0  0  0  0
    2.3667   65.2203   70.2684 H   0  0  0  0  0  0  0  0  0  0  0  0
    4.7689   59.9086   74.3291 H   0  0  0  0  0  0  0  0  0  0  0  0
    3.7814   58.3821   76.0361 H   0  0  0  0  0  0  0  0  0  0  0  0
    1.9541   56.8109   75.4098 H   0  0  0  0  0  0  0  0  0  0  0  0
    1.1008   56.7635   73.0662 H   0  0  0  0  0  0  0  0  0  0  0  0
    2.0840   58.2814   71.3513 H   0  0  0  0  0  0  0  0  0  0  0  0
  2  1  2  0
  3  2  1  0
  4  3  2  0
  5  4  1  0
  6  5  2  0
  6  1  1  0
  7  6  1  0
  8  7  2  0
  9  7  1  0
 10  4  1  0
 11 10  2  0
 12 10  1  0
 14 13  2  0
 14  1  1  0
 15 14  1  0
 16 15  2  0
 17 15  1  0
 18 17  2  0
 19 18  1  0
 20 19  2  0
 21 20  1  0
 22 21  2  0
 22 17  1  0
  2 23  1  0
  3 24  1  0
  5 25  1  0
 18 26  1  0
 19 27  1  0
 20 28  1  0
 21 29  1  0
 22 30  1  0
M  CHG  4   7   1   9  -1  10   1  12  -1
M  END
>  <score>  (9) 
-7.654

$$$$
