=
     RDKit          3D

 51 54  0  0  0  0  0  0  0  0999 V2000
    0.4720   65.2720   69.8940 O   0  0  0  0  0  0  0  0  0  0  0  0
    0.9070   64.4230   70.6720 C   0  0  0  0  0  0  0  0  0  0  0  0
    2.3150   63.8920   70.5500 C   0  0  0  0  0  0  0  0  0  0  0  0
    2.3680   62.3830   70.7730 C   0  0  0  0  0  0  0  0  0  0  0  0
    1.6530   61.9090   72.0710 C   0  0  1  0  0  0  0  0  0  0  0  0
    0.1850   62.4440   72.0100 C   0  0  2  0  0  0  0  0  0  0  0  0
    0.1030   63.9660   71.8670 C   0  0  0  0  0  0  0  0  0  0  0  0
   -0.6670   61.9590   73.1890 C   0  0  0  0  0  0  0  0  0  0  0  0
   -0.7000   60.4350   73.2570 C   0  0  0  0  0  0  0  0  0  0  0  0
    0.7070   59.8230   73.3040 C   0  0  2  0  0  0  0  0  0  0  0  0
    1.5850   60.3360   72.1170 C   0  0  2  0  0  0  0  0  0  0  0  0
    2.9670   59.6320   72.0690 C   0  0  0  0  0  0  0  0  0  0  0  0
    2.8780   58.0970   72.1520 C   0  0  0  0  0  0  0  0  0  0  0  0
    2.0460   57.6440   73.3580 C   0  0  1  0  0  0  0  0  0  0  0  0
    0.6530   58.2930   73.2480 C   0  0  1  0  0  0  0  0  0  0  0  0
   -0.1750   57.5390   74.2850 C   0  0  0  0  0  0  0  0  0  0  0  0
    0.3830   56.1050   74.2370 C   0  0  0  0  0  0  0  0  0  0  0  0
    1.6330   56.1590   73.3360 C   0  0  2  0  0  0  0  0  0  0  0  0
    2.8100   57.9710   74.6660 C   0  0  0  0  0  0  0  0  0  0  0  0
    2.4250   62.4650   73.2940 C   0  0  0  0  0  0  0  0  0  0  0  0
    2.6350   55.2810   73.8120 O   0  0  0  0  0  0  0  0  0  0  0  0
    2.6955   64.1175   69.5429 H   0  0  0  0  0  0  0  0  0  0  0  0
    2.9329   64.3755   71.3210 H   0  0  0  0  0  0  0  0  0  0  0  0
    1.8890   61.8896   69.9145 H   0  0  0  0  0  0  0  0  0  0  0  0
    3.4294   62.1142   70.8784 H   0  0  0  0  0  0  0  0  0  0  0  0
   -0.2388   62.0123   71.0913 H   0  0  0  0  0  0  0  0  0  0  0  0
    0.5034   64.4383   72.7762 H   0  0  0  0  0  0  0  0  0  0  0  0
   -0.9483   64.2565   71.7241 H   0  0  0  0  0  0  0  0  0  0  0  0
   -0.2409   62.3506   74.1245 H   0  0  0  0  0  0  0  0  0  0  0  0
   -1.6953   62.3234   73.0483 H   0  0  0  0  0  0  0  0  0  0  0  0
   -1.2474   60.1331   74.1621 H   0  0  0  0  0  0  0  0  0  0  0  0
   -1.1961   60.0683   72.3462 H   0  0  0  0  0  0  0  0  0  0  0  0
    1.1570   60.1366   74.2575 H   0  0  0  0  0  0  0  0  0  0  0  0
    1.0866   60.0457   71.1803 H   0  0  0  0  0  0  0  0  0  0  0  0
    3.4623   59.9014   71.1245 H   0  0  0  0  0  0  0  0  0  0  0  0
    3.5334   59.9711   72.9489 H   0  0  0  0  0  0  0  0  0  0  0  0
    2.4099   57.7163   71.2322 H   0  0  0  0  0  0  0  0  0  0  0  0
    3.8969   57.6991   72.2681 H   0  0  0  0  0  0  0  0  0  0  0  0
    0.1601   58.1894   72.2701 H   0  0  0  0  0  0  0  0  0  0  0  0
   -0.0417   57.9770   75.2852 H   0  0  0  0  0  0  0  0  0  0  0  0
   -1.2542   57.5803   74.0761 H   0  0  0  0  0  0  0  0  0  0  0  0
    0.6560   55.7682   75.2479 H   0  0  0  0  0  0  0  0  0  0  0  0
   -0.3629   55.3978   73.8452 H   0  0  0  0  0  0  0  0  0  0  0  0
    1.4507   55.8199   72.3056 H   0  0  0  0  0  0  0  0  0  0  0  0
    2.1860   57.7039   75.5316 H   0  0  0  0  0  0  0  0  0  0  0  0
    3.7465   57.3949   74.6974 H   0  0  0  0  0  0  0  0  0  0  0  0
    3.0397   59.0463   74.6974 H   0  0  0  0  0  0  0  0  0  0  0  0
    1.9434   62.1182   74.2202 H   0  0  0  0  0  0  0  0  0  0  0  0
    3.4647   62.1070   73.2650 H   0  0  0  0  0  0  0  0  0  0  0  0
    2.4149   63.5646   73.2650 H   0  0  0  0  0  0  0  0  0  0  0  0
    2.6325   55.2832   74.8020 H   0  0  0  0  0  0  0  0  0  0  0  0
  2  1  2  0
  3  2  1  0
  4  3  1  0
  5  4  1  0
  6  5  1  0
  7  2  1  0
  7  6  1  0
  8  6  1  0
  9  8  1  0
 10  9  1  0
 11 10  1  0
 11  5  1  0
 12 11  1  0
 13 12  1  0
 14 13  1  0
 15 14  1  0
 15 10  1  0
 16 15  1  0
 17 16  1  0
 18 17  1  0
 18 14  1  0
 14 19  1  1
  5 20  1  1
 21 18  1  0
  3 22  1  0
  3 23  1  0
  4 24  1  0
  4 25  1  0
  6 26  1  6
  7 27  1  0
  7 28  1  0
  8 29  1  0
  8 30  1  0
  9 31  1  0
  9 32  1  0
 10 33  1  1
 11 34  1  6
 12 35  1  0
 12 36  1  0
 13 37  1  0
 13 38  1  0
 15 39  1  6
 16 40  1  0
 16 41  1  0
 17 42  1  0
 17 43  1  0
 18 44  1  6
 19 45  1  0
 19 46  1  0
 19 47  1  0
 20 48  1  0
 20 49  1  0
 20 50  1  0
 21 51  1  0
M  END
>  <score>  (1) 
-9.214

$$$$
=
     RDKit          3D

 51 54  0  0  0  0  0  0  0  0999 V2000
    3.7680   63.0840   68.0050 O   0  0  0  0  0  0  0  0  0  0  0  0
    3.4960   62.6980   69.1420 C   0  0  0  0  0  0  0  0  0  0  0  0
    4.1990   61.5120   69.7580 C   0  0  0  0  0  0  0  0  0  0  0  0
    3.2270   60.6160   70.5210 C   0  0  0  0  0  0  0  0  0  0  0  0
    2.3250   61.3790   71.5330 C   0  0  1  0  0  0  0  0  0  0  0  0
    1.5870   62.5040   70.7370 C   0  0  2  0  0  0  0  0  0  0  0  0
    2.5430   63.4670   70.0270 C   0  0  0  0  0  0  0  0  0  0  0  0
    0.5810   63.2720   71.6020 C   0  0  0  0  0  0  0  0  0  0  0  0
   -0.4590   62.3340   72.2060 C   0  0  0  0  0  0  0  0  0  0  0  0
    0.1810   61.1850   72.9950 C   0  0  2  0  0  0  0  0  0  0  0  0
    1.2270   60.4150   72.1230 C   0  0  2  0  0  0  0  0  0  0  0  0
    1.7930   59.1700   72.8560 C   0  0  0  0  0  0  0  0  0  0  0  0
    0.7020   58.2630   73.4560 C   0  0  0  0  0  0  0  0  0  0  0  0
   -0.2700   59.0550   74.3390 C   0  0  1  0  0  0  0  0  0  0  0  0
   -0.8730   60.1890   73.4870 C   0  0  1  0  0  0  0  0  0  0  0  0
   -2.0350   60.6950   74.3380 C   0  0  0  0  0  0  0  0  0  0  0  0
   -2.5690   59.4280   75.0320 C   0  0  0  0  0  0  0  0  0  0  0  0
   -1.5640   58.3040   74.7100 C   0  0  2  0  0  0  0  0  0  0  0  0
    0.4640   59.5290   75.6190 C   0  0  0  0  0  0  0  0  0  0  0  0
    3.2190   61.9530   72.6600 C   0  0  0  0  0  0  0  0  0  0  0  0
   -1.4190   57.4280   75.8110 O   0  0  0  0  0  0  0  0  0  0  0  0
    4.6740   60.9241   68.9588 H   0  0  0  0  0  0  0  0  0  0  0  0
    4.9497   61.8883   70.4685 H   0  0  0  0  0  0  0  0  0  0  0  0
    2.5774   60.1102   69.7915 H   0  0  0  0  0  0  0  0  0  0  0  0
    3.8360   59.9110   71.1059 H   0  0  0  0  0  0  0  0  0  0  0  0
    1.0219   61.9773   69.9539 H   0  0  0  0  0  0  0  0  0  0  0  0
    3.1177   64.0284   70.7784 H   0  0  0  0  0  0  0  0  0  0  0  0
    1.9577   64.1613   69.4063 H   0  0  0  0  0  0  0  0  0  0  0  0
    1.1211   63.7795   72.4149 H   0  0  0  0  0  0  0  0  0  0  0  0
    0.0615   64.0028   70.9648 H   0  0  0  0  0  0  0  0  0  0  0  0
   -1.1050   62.9115   72.8836 H   0  0  0  0  0  0  0  0  0  0  0  0
   -1.0354   61.8938   71.3790 H   0  0  0  0  0  0  0  0  0  0  0  0
    0.6851   61.6389   73.8609 H   0  0  0  0  0  0  0  0  0  0  0  0
    0.7008   60.0112   71.2455 H   0  0  0  0  0  0  0  0  0  0  0  0
    2.3804   58.5797   72.1373 H   0  0  0  0  0  0  0  0  0  0  0  0
    2.4055   59.5371   73.6927 H   0  0  0  0  0  0  0  0  0  0  0  0
    0.1379   57.7936   72.6366 H   0  0  0  0  0  0  0  0  0  0  0  0
    1.1930   57.5031   74.0817 H   0  0  0  0  0  0  0  0  0  0  0  0
   -1.2684   59.8833   72.5071 H   0  0  0  0  0  0  0  0  0  0  0  0
   -1.6860   61.4291   75.0792 H   0  0  0  0  0  0  0  0  0  0  0  0
   -2.8046   61.2070   73.7417 H   0  0  0  0  0  0  0  0  0  0  0  0
   -2.6293   59.5855   76.1190 H   0  0  0  0  0  0  0  0  0  0  0  0
   -3.5798   59.1744   74.6799 H   0  0  0  0  0  0  0  0  0  0  0  0
   -1.8835   57.6467   73.8879 H   0  0  0  0  0  0  0  0  0  0  0  0
   -0.0819   59.1765   76.5065 H   0  0  0  0  0  0  0  0  0  0  0  0
    1.4847   59.1190   75.6295 H   0  0  0  0  0  0  0  0  0  0  0  0
    0.5102   60.6280   75.6295 H   0  0  0  0  0  0  0  0  0  0  0  0
    2.7956   61.6812   73.6382 H   0  0  0  0  0  0  0  0  0  0  0  0
    4.2334   61.5370   72.5711 H   0  0  0  0  0  0  0  0  0  0  0  0
    3.2629   63.0485   72.5711 H   0  0  0  0  0  0  0  0  0  0  0  0
   -1.5038   57.9404   76.6538 H   0  0  0  0  0  0  0  0  0  0  0  0
  2  1  2  0
  3  2  1  0
  4  3  1  0
  5  4  1  0
  6  5  1  0
  7  2  1  0
  7  6  1  0
  8  6  1  0
  9  8  1  0
 10  9  1  0
 11 10  1  0
 11  5  1  0
 12 11  1  0
 13 12  1  0
 14 13  1  0
 15 14  1  0
 15 10  1  0
 16 15  1  0
 17 16  1  0
 18 17  1  0
 18 14  1  0
 14 19  1  1
  5 20  1  1
 21 18  1  0
  3 22  1  0
  3 23  1  0
  4 24  1  0
  4 25  1  0
  6 26  1  6
  7 27  1  0
  7 28  1  0
  8 29  1  0
  8 30  1  0
  9 31  1  0
  9 32  1  0
 10 33  1  1
 11 34  1  6
 12 35  1  0
 12 36  1  0
 13 37  1  0
 13 38  1  0
 15 39  1  6
 16 40  1  0
 16 41  1  0
 17 42  1  0
 17 43  1  0
 18 44  1  6
 19 45  1  0
 19 46  1  0
 19 47  1  0
 20 48  1  0
 20 49  1  0
 20 50  1  0
 21 51  1  0
M  END
>  <score>  (2) 
-8.847

$$$$
=
     RDKit          3D

 51 54  0  0  0  0  0  0  0  0999 V2000
    3.1000   63.6980   68.7460 O   0  0  0  0  0  0  0  0  0  0  0  0
    3.0720   62.9820   69.7470 C   0  0  0  0  0  0  0  0  0  0  0  0
    4.0650   61.8610   69.9370 C   0  0  0  0  0  0  0  0  0  0  0  0
    3.3980   60.6080   70.5000 C   0  0  0  0  0  0  0  0  0  0  0  0
    2.5270   60.8680   71.7630 C   0  0  1  0  0  0  0  0  0  0  0  0
    1.4850   61.9720   71.3870 C   0  0  2  0  0  0  0  0  0  0  0  0
    2.1330   63.2690   70.8950 C   0  0  0  0  0  0  0  0  0  0  0  0
    0.4910   62.2520   72.5190 C   0  0  0  0  0  0  0  0  0  0  0  0
   -0.2580   60.9860   72.9240 C   0  0  0  0  0  0  0  0  0  0  0  0
    0.6930   59.8400   73.2960 C   0  0  2  0  0  0  0  0  0  0  0  0
    1.7250   59.5690   72.1520 C   0  0  2  0  0  0  0  0  0  0  0  0
    2.6120   58.3320   72.4500 C   0  0  0  0  0  0  0  0  0  0  0  0
    1.8080   57.0850   72.8640 C   0  0  0  0  0  0  0  0  0  0  0  0
    0.8450   57.3910   74.0180 C   0  0  1  0  0  0  0  0  0  0  0  0
   -0.0750   58.5460   73.5790 C   0  0  1  0  0  0  0  0  0  0  0  0
   -1.1740   58.5490   74.6390 C   0  0  0  0  0  0  0  0  0  0  0  0
   -1.3570   57.0610   74.9900 C   0  0  0  0  0  0  0  0  0  0  0  0
   -0.2190   56.3060   74.2760 C   0  0  2  0  0  0  0  0  0  0  0  0
    1.6580   57.6660   75.3090 C   0  0  0  0  0  0  0  0  0  0  0  0
    3.4540   61.3130   72.9210 C   0  0  0  0  0  0  0  0  0  0  0  0
    0.2450   55.2290   75.0670 O   0  0  0  0  0  0  0  0  0  0  0  0
    4.5188   61.6176   68.9650 H   0  0  0  0  0  0  0  0  0  0  0  0
    4.8286   62.1960   70.6544 H   0  0  0  0  0  0  0  0  0  0  0  0
    2.7544   60.1779   69.7185 H   0  0  0  0  0  0  0  0  0  0  0  0
    4.2061   59.9271   70.8053 H   0  0  0  0  0  0  0  0  0  0  0  0
    0.9183   61.5555   70.5412 H   0  0  0  0  0  0  0  0  0  0  0  0
    2.6976   63.7284   71.7197 H   0  0  0  0  0  0  0  0  0  0  0  0
    1.3451   63.9549   70.5505 H   0  0  0  0  0  0  0  0  0  0  0  0
    1.0398   62.6381   73.3906 H   0  0  0  0  0  0  0  0  0  0  0  0
   -0.2422   62.9906   72.1628 H   0  0  0  0  0  0  0  0  0  0  0  0
   -0.8940   61.2137   73.7921 H   0  0  0  0  0  0  0  0  0  0  0  0
   -0.8573   60.6592   72.0614 H   0  0  0  0  0  0  0  0  0  0  0  0
    1.2254   60.1535   74.2061 H   0  0  0  0  0  0  0  0  0  0  0  0
    1.1611   59.3009   71.2464 H   0  0  0  0  0  0  0  0  0  0  0  0
    3.1879   58.0902   71.5445 H   0  0  0  0  0  0  0  0  0  0  0  0
    3.2603   58.5955   73.2987 H   0  0  0  0  0  0  0  0  0  0  0  0
    1.2276   56.7312   71.9991 H   0  0  0  0  0  0  0  0  0  0  0  0
    2.5172   56.3154   73.2028 H   0  0  0  0  0  0  0  0  0  0  0  0
   -0.5458   58.4251   72.5922 H   0  0  0  0  0  0  0  0  0  0  0  0
   -0.8625   59.1239   75.5235 H   0  0  0  0  0  0  0  0  0  0  0  0
   -2.1036   59.0176   74.2837 H   0  0  0  0  0  0  0  0  0  0  0  0
   -1.2873   56.9148   76.0780 H   0  0  0  0  0  0  0  0  0  0  0  0
   -2.3433   56.6929   74.6709 H   0  0  0  0  0  0  0  0  0  0  0  0
   -0.5274   55.8295   73.3337 H   0  0  0  0  0  0  0  0  0  0  0  0
    1.0322   57.4543   76.1885 H   0  0  0  0  0  0  0  0  0  0  0  0
    2.5471   57.0186   75.3273 H   0  0  0  0  0  0  0  0  0  0  0  0
    1.9716   58.7202   75.3273 H   0  0  0  0  0  0  0  0  0  0  0  0
    2.9744   61.0828   73.8838 H   0  0  0  0  0  0  0  0  0  0  0  0
    4.4117   60.7765   72.8509 H   0  0  0  0  0  0  0  0  0  0  0  0
    3.6344   62.3958   72.8509 H   0  0  0  0  0  0  0  0  0  0  0  0
    0.1467   55.4571   76.0253 H   0  0  0  0  0  0  0  0  0  0  0  0
  2  1  2  0
  3  2  1  0
  4  3  1  0
  5  4  1  0
  6  5  1  0
  7  2  1  0
  7  6  1  0
  8  6  1  0
  9  8  1  0
 10  9  1  0
 11 10  1  0
 11  5  1  0
 12 11  1  0
 13 12  1  0
 14 13  1  0
 15 14  1  0
 15 10  1  0
 16 15  1  0
 17 16  1  0
 18 17  1  0
 18 14  1  0
 14 19  1  1
  5 20  1  1
 21 18  1  0
  3 22  1  0
  3 23  1  0
  4 24  1  0
  4 25  1  0
  6 26  1  6
  7 27  1  0
  7 28  1  0
  8 29  1  0
  8 30  1  0
  9 31  1  0
  9 32  1  0
 10 33  1  1
 11 34  1  6
 12 35  1  0
 12 36  1  0
 13 37  1  0
 13 38  1  0
 15 39  1  6
 16 40  1  0
 16 41  1  0
 17 42  1  0
 17 43  1  0
 18 44  1  6
 19 45  1  0
 19 46  1  0
 19 47  1  0
 20 48  1  0
 20 49  1  0
 20 50  1  0
 21 51  1  0
M  END
>  <score>  (3) 
-8.525

$$$$
=
     RDKit          3D

 51 54  0  0  0  0  0  0  0  0999 V2000
    0.2140   54.4990   73.9180 O   0  0  0  0  0  0  0  0  0  0  0  0
    0.4120   55.7020   74.0830 C   0  0  0  0  0  0  0  0  0  0  0  0
   -0.6350   56.5900   74.7120 C   0  0  0  0  0  0  0  0  0  0  0  0
   -0.7380   57.9340   73.9940 C   0  0  0  0  0  0  0  0  0  0  0  0
    0.6270   58.6530   73.7960 C   0  0  1  0  0  0  0  0  0  0  0  0
    1.5700   57.6550   73.0460 C   0  0  2  0  0  0  0  0  0  0  0  0
    1.7550   56.3280   73.7880 C   0  0  0  0  0  0  0  0  0  0  0  0
    2.9250   58.2790   72.6950 C   0  0  0  0  0  0  0  0  0  0  0  0
    2.7530   59.5310   71.8400 C   0  0  0  0  0  0  0  0  0  0  0  0
    1.8250   60.5620   72.4970 C   0  0  2  0  0  0  0  0  0  0  0  0
    0.4510   59.9220   72.8790 C   0  0  2  0  0  0  0  0  0  0  0  0
   -0.5500   60.9740   73.4260 C   0  0  0  0  0  0  0  0  0  0  0  0
   -0.6780   62.2210   72.5310 C   0  0  0  0  0  0  0  0  0  0  0  0
    0.6920   62.8390   72.2230 C   0  0  1  0  0  0  0  0  0  0  0  0
    1.5690   61.7530   71.5700 C   0  0  1  0  0  0  0  0  0  0  0  0
    2.7580   62.5380   71.0200 C   0  0  0  0  0  0  0  0  0  0  0  0
    2.1460   63.8800   70.5790 C   0  0  0  0  0  0  0  0  0  0  0  0
    0.6910   63.8790   71.0860 C   0  0  2  0  0  0  0  0  0  0  0  0
    1.2830   63.4560   73.5160 C   0  0  0  0  0  0  0  0  0  0  0  0
    1.1850   59.0480   75.1860 C   0  0  0  0  0  0  0  0  0  0  0  0
    0.3000   65.1750   71.4980 O   0  0  0  0  0  0  0  0  0  0  0  0
   -1.6099   56.0830   74.6619 H   0  0  0  0  0  0  0  0  0  0  0  0
   -0.3435   56.7792   75.7557 H   0  0  0  0  0  0  0  0  0  0  0  0
   -1.1857   57.7635   73.0038 H   0  0  0  0  0  0  0  0  0  0  0  0
   -1.3523   58.5880   74.6304 H   0  0  0  0  0  0  0  0  0  0  0  0
    1.0534   57.4256   72.1023 H   0  0  0  0  0  0  0  0  0  0  0  0
    2.2856   56.5118   74.7339 H   0  0  0  0  0  0  0  0  0  0  0  0
    2.3389   55.6425   73.1562 H   0  0  0  0  0  0  0  0  0  0  0  0
    3.4470   58.5489   73.6249 H   0  0  0  0  0  0  0  0  0  0  0  0
    3.5081   57.5437   72.1212 H   0  0  0  0  0  0  0  0  0  0  0  0
    3.7398   59.9916   71.6846 H   0  0  0  0  0  0  0  0  0  0  0  0
    2.2968   59.2272   70.8863 H   0  0  0  0  0  0  0  0  0  0  0  0
    2.3343   60.9116   73.4072 H   0  0  0  0  0  0  0  0  0  0  0  0
   -0.0117   59.5446   71.9551 H   0  0  0  0  0  0  0  0  0  0  0  0
   -1.5401   60.5022   73.5101 H   0  0  0  0  0  0  0  0  0  0  0  0
   -0.1658   61.3117   74.3998 H   0  0  0  0  0  0  0  0  0  0  0  0
   -1.1605   61.9334   71.5852 H   0  0  0  0  0  0  0  0  0  0  0  0
   -1.2797   62.9691   73.0678 H   0  0  0  0  0  0  0  0  0  0  0  0
    1.1010   61.2055   70.7386 H   0  0  0  0  0  0  0  0  0  0  0  0
    3.5188   62.6925   71.7993 H   0  0  0  0  0  0  0  0  0  0  0  0
    3.2673   62.0142   70.1977 H   0  0  0  0  0  0  0  0  0  0  0  0
    2.7037   64.7174   71.0236 H   0  0  0  0  0  0  0  0  0  0  0  0
    2.1886   63.9990   69.4863 H   0  0  0  0  0  0  0  0  0  0  0  0
   -0.0462   63.6126   70.3142 H   0  0  0  0  0  0  0  0  0  0  0  0
    0.8243   62.9771   74.3937 H   0  0  0  0  0  0  0  0  0  0  0  0
    2.3707   63.2931   73.5360 H   0  0  0  0  0  0  0  0  0  0  0  0
    1.0735   64.5357   73.5360 H   0  0  0  0  0  0  0  0  0  0  0  0
    0.5575   58.6038   75.9727 H   0  0  0  0  0  0  0  0  0  0  0  0
    2.2158   58.6773   75.2862 H   0  0  0  0  0  0  0  0  0  0  0  0
    1.1779   60.1434   75.2862 H   0  0  0  0  0  0  0  0  0  0  0  0
    0.2873   65.2171   72.4870 H   0  0  0  0  0  0  0  0  0  0  0  0
  2  1  2  0
  3  2  1  0
  4  3  1  0
  5  4  1  0
  6  5  1  0
  7  2  1  0
  7  6  1  0
  8  6  1  0
  9  8  1  0
 10  9  1  0
 11 10  1  0
 11  5  1  0
 12 11  1  0
 13 12  1  0
 14 13  1  0
 15 14  1  0
 15 10  1  0
 16 15  1  0
 17 16  1  0
 18 17  1  0
 18 14  1  0
 14 19  1  1
  5 20  1  1
 21 18  1  0
  3 22  1  0
  3 23  1  0
  4 24  1  0
  4 25  1  0
  6 26  1  6
  7 27  1  0
  7 28  1  0
  8 29  1  0
  8 30  1  0
  9 31  1  0
  9 32  1  0
 10 33  1  1
 11 34  1  6
 12 35  1  0
 12 36  1  0
 13 37  1  0
 13 38  1  0
 15 39  1  6
 16 40  1  0
 16 41  1  0
 17 42  1  0
 17 43  1  0
 18 44  1  6
 19 45  1  0
 19 46  1  0
 19 47  1  0
 20 48  1  0
 20 49  1  0
 20 50  1  0
 21 51  1  0
M  END
>  <score>  (4) 
-8.456

$$$$
=
     RDKit          3D

 51 54  0  0  0  0  0  0  0  0999 V2000
   -4.5610   58.8080   74.9880 O   0  0  0  0  0  0  0  0  0  0  0  0
   -3.4620   59.3520   74.8790 C   0  0  0  0  0  0  0  0  0  0  0  0
   -3.3420   60.8350   74.6210 C   0  0  0  0  0  0  0  0  0  0  0  0
   -2.2490   61.1410   73.5990 C   0  0  0  0  0  0  0  0  0  0  0  0
   -0.8820   60.4680   73.9130 C   0  0  1  0  0  0  0  0  0  0  0  0
   -1.1450   58.9320   74.0520 C   0  0  2  0  0  0  0  0  0  0  0  0
   -2.1800   58.5930   75.1280 C   0  0  0  0  0  0  0  0  0  0  0  0
    0.1450   58.1320   74.2620 C   0  0  0  0  0  0  0  0  0  0  0  0
    1.1310   58.3620   73.1200 C   0  0  0  0  0  0  0  0  0  0  0  0
    1.4340   59.8500   72.9030 C   0  0  2  0  0  0  0  0  0  0  0  0
    0.1180   60.6730   72.7130 C   0  0  2  0  0  0  0  0  0  0  0  0
    0.4050   62.1570   72.3630 C   0  0  0  0  0  0  0  0  0  0  0  0
    1.4130   62.3320   71.2120 C   0  0  0  0  0  0  0  0  0  0  0  0
    2.7040   61.5440   71.4670 C   0  0  1  0  0  0  0  0  0  0  0  0
    2.3260   60.0650   71.6770 C   0  0  1  0  0  0  0  0  0  0  0  0
    3.6680   59.3400   71.5960 C   0  0  0  0  0  0  0  0  0  0  0  0
    4.4620   60.1410   70.5480 C   0  0  0  0  0  0  0  0  0  0  0  0
    3.6230   61.3970   70.2380 C   0  0  2  0  0  0  0  0  0  0  0  0
    3.4780   62.1880   72.6450 C   0  0  0  0  0  0  0  0  0  0  0  0
   -0.3150   61.0820   75.2170 C   0  0  0  0  0  0  0  0  0  0  0  0
    4.4580   62.5170   70.0130 O   0  0  0  0  0  0  0  0  0  0  0  0
   -4.3030   61.2098   74.2390 H   0  0  0  0  0  0  0  0  0  0  0  0
   -3.0762   61.3286   75.5674 H   0  0  0  0  0  0  0  0  0  0  0  0
   -2.5890   60.7900   72.6135 H   0  0  0  0  0  0  0  0  0  0  0  0
   -2.0823   62.2279   73.6274 H   0  0  0  0  0  0  0  0  0  0  0  0
   -1.5742   58.6257   73.0866 H   0  0  0  0  0  0  0  0  0  0  0  0
   -1.7809   58.8687   76.1153 H   0  0  0  0  0  0  0  0  0  0  0  0
   -2.3906   57.5139   75.0949 H   0  0  0  0  0  0  0  0  0  0  0  0
    0.6117   58.4460   75.2073 H   0  0  0  0  0  0  0  0  0  0  0  0
   -0.1101   57.0624   74.2910 H   0  0  0  0  0  0  0  0  0  0  0  0
    2.0707   57.8401   73.3535 H   0  0  0  0  0  0  0  0  0  0  0  0
    0.6742   57.9737   72.1978 H   0  0  0  0  0  0  0  0  0  0  0  0
    1.9605   60.1998   73.8032 H   0  0  0  0  0  0  0  0  0  0  0  0
   -0.4062   60.2715   71.8332 H   0  0  0  0  0  0  0  0  0  0  0  0
   -0.5418   62.6358   72.0726 H   0  0  0  0  0  0  0  0  0  0  0  0
    0.8496   62.6203   73.2561 H   0  0  0  0  0  0  0  0  0  0  0  0
    0.9546   61.9736   70.2785 H   0  0  0  0  0  0  0  0  0  0  0  0
    1.6701   63.3991   71.1392 H   0  0  0  0  0  0  0  0  0  0  0  0
    1.6541   59.6371   70.9184 H   0  0  0  0  0  0  0  0  0  0  0  0
    4.1798   59.3550   72.5696 H   0  0  0  0  0  0  0  0  0  0  0  0
    3.5603   58.2793   71.3253 H   0  0  0  0  0  0  0  0  0  0  0  0
    5.4438   60.4288   70.9520 H   0  0  0  0  0  0  0  0  0  0  0  0
    4.6412   59.5455   69.6407 H   0  0  0  0  0  0  0  0  0  0  0  0
    3.0308   61.3174   69.3144 H   0  0  0  0  0  0  0  0  0  0  0  0
    3.0551   61.8361   73.5976 H   0  0  0  0  0  0  0  0  0  0  0  0
    4.5386   61.9021   72.5868 H   0  0  0  0  0  0  0  0  0  0  0  0
    3.3897   63.2829   72.5868 H   0  0  0  0  0  0  0  0  0  0  0  0
   -0.7731   60.5859   76.0853 H   0  0  0  0  0  0  0  0  0  0  0  0
    0.7753   60.9388   75.2459 H   0  0  0  0  0  0  0  0  0  0  0  0
   -0.5444   62.1574   75.2459 H   0  0  0  0  0  0  0  0  0  0  0  0
    4.7414   62.8972   70.8820 H   0  0  0  0  0  0  0  0  0  0  0  0
  2  1  2  0
  3  2  1  0
  4  3  1  0
  5  4  1  0
  6  5  1  0
  7  2  1  0
  7  6  1  0
  8  6  1  0
  9  8  1  0
 10  9  1  0
 11 10  1  0
 11  5  1  0
 12 11  1  0
 13 12  1  0
 14 13  1  0
 15 14  1  0
 15 10  1  0
 16 15  1  0
 17 16  1  0
 18 17  1  0
 18 14  1  0
 14 19  1  1
  5 20  1  1
 21 18  1  0
  3 22  1  0
  3 23  1  0
  4 24  1  0
  4 25  1  0
  6 26  1  6
  7 27  1  0
  7 28  1  0
  8 29  1  0
  8 30  1  0
  9 31  1  0
  9 32  1  0
 10 33  1  1
 11 34  1  6
 12 35  1  0
 12 36  1  0
 13 37  1  0
 13 38  1  0
 15 39  1  6
 16 40  1  0
 16 41  1  0
 17 42  1  0
 17 43  1  0
 18 44  1  6
 19 45  1  0
 19 46  1  0
 19 47  1  0
 20 48  1  0
 20 49  1  0
 20 50  1  0
 21 51  1  0
M  END
>  <score>  (5) 
-8.316

$$$$
=
     RDKit          3D

 51 54  0  0  0  0  0  0  0  0999 V2000
   -2.5910   55.6310   75.1480 O   0  0  0  0  0  0  0  0  0  0  0  0
   -1.7030   56.4780   75.0480 C   0  0  0  0  0  0  0  0  0  0  0  0
   -1.9570   57.9260   75.3940 C   0  0  0  0  0  0  0  0  0  0  0  0
   -1.3030   58.8670   74.3860 C   0  0  0  0  0  0  0  0  0  0  0  0
    0.1990   58.5620   74.1160 C   0  0  1  0  0  0  0  0  0  0  0  0
    0.2930   57.0660   73.6710 C   0  0  2  0  0  0  0  0  0  0  0  0
   -0.2830   56.0930   74.7030 C   0  0  0  0  0  0  0  0  0  0  0  0
    1.7160   56.6610   73.2730 C   0  0  0  0  0  0  0  0  0  0  0  0
    2.2490   57.5430   72.1480 C   0  0  0  0  0  0  0  0  0  0  0  0
    2.1780   59.0360   72.4960 C   0  0  2  0  0  0  0  0  0  0  0  0
    0.7320   59.4470   72.9260 C   0  0  2  0  0  0  0  0  0  0  0  0
    0.6070   60.9770   73.1570 C   0  0  0  0  0  0  0  0  0  0  0  0
    1.1680   61.8210   71.9980 C   0  0  0  0  0  0  0  0  0  0  0  0
    2.6030   61.4110   71.6440 C   0  0  1  0  0  0  0  0  0  0  0  0
    2.6010   59.9070   71.3090 C   0  0  1  0  0  0  0  0  0  0  0  0
    3.9700   59.6820   70.6710 C   0  0  0  0  0  0  0  0  0  0  0  0
    4.2410   60.9870   69.9000 C   0  0  0  0  0  0  0  0  0  0  0  0
    3.1210   61.9660   70.3030 C   0  0  2  0  0  0  0  0  0  0  0  0
    3.5550   61.8150   72.7980 C   0  0  0  0  0  0  0  0  0  0  0  0
    1.0010   58.8370   75.4120 C   0  0  0  0  0  0  0  0  0  0  0  0
    3.6150   63.2890   70.3860 O   0  0  0  0  0  0  0  0  0  0  0  0
   -3.0420   58.1068   75.3994 H   0  0  0  0  0  0  0  0  0  0  0  0
   -1.5209   58.1250   76.3840 H   0  0  0  0  0  0  0  0  0  0  0  0
   -1.8485   58.7872   73.4341 H   0  0  0  0  0  0  0  0  0  0  0  0
   -1.3495   59.8776   74.8180 H   0  0  0  0  0  0  0  0  0  0  0  0
   -0.3391   56.9930   72.7737 H   0  0  0  0  0  0  0  0  0  0  0  0
    0.3330   56.1228   75.6138 H   0  0  0  0  0  0  0  0  0  0  0  0
   -0.2792   55.0776   74.2800 H   0  0  0  0  0  0  0  0  0  0  0  0
    2.3747   56.7596   74.1484 H   0  0  0  0  0  0  0  0  0  0  0  0
    1.6943   55.6202   72.9177 H   0  0  0  0  0  0  0  0  0  0  0  0
    3.2979   57.2743   71.9544 H   0  0  0  0  0  0  0  0  0  0  0  0
    1.6210   57.3737   71.2609 H   0  0  0  0  0  0  0  0  0  0  0  0
    2.8723   59.1990   73.3335 H   0  0  0  0  0  0  0  0  0  0  0  0
    0.0557   59.2317   72.0856 H   0  0  0  0  0  0  0  0  0  0  0  0
   -0.4573   61.2241   73.2843 H   0  0  0  0  0  0  0  0  0  0  0  0
    1.2012   61.2189   74.0505 H   0  0  0  0  0  0  0  0  0  0  0  0
    0.5287   61.6826   71.1136 H   0  0  0  0  0  0  0  0  0  0  0  0
    1.1792   62.8747   72.3137 H   0  0  0  0  0  0  0  0  0  0  0  0
    1.8288   59.5839   70.5954 H   0  0  0  0  0  0  0  0  0  0  0  0
    4.7377   59.5163   71.4411 H   0  0  0  0  0  0  0  0  0  0  0  0
    3.9937   58.7942   70.0219 H   0  0  0  0  0  0  0  0  0  0  0  0
    5.2234   61.3967   70.1775 H   0  0  0  0  0  0  0  0  0  0  0  0
    4.2513   60.8155   68.8135 H   0  0  0  0  0  0  0  0  0  0  0  0
    2.3058   62.0323   69.5675 H   0  0  0  0  0  0  0  0  0  0  0  0
    3.0693   61.6089   73.7632 H   0  0  0  0  0  0  0  0  0  0  0  0
    4.4866   61.2347   72.7250 H   0  0  0  0  0  0  0  0  0  0  0  0
    3.7849   62.8882   72.7250 H   0  0  0  0  0  0  0  0  0  0  0  0
    0.3699   58.6206   76.2866 H   0  0  0  0  0  0  0  0  0  0  0  0
    1.8927   58.1933   75.4350 H   0  0  0  0  0  0  0  0  0  0  0  0
    1.3100   59.8924   75.4350 H   0  0  0  0  0  0  0  0  0  0  0  0
    3.7111   63.5463   71.3371 H   0  0  0  0  0  0  0  0  0  0  0  0
  2  1  2  0
  3  2  1  0
  4  3  1  0
  5  4  1  0
  6  5  1  0
  7  2  1  0
  7  6  1  0
  8  6  1  0
  9  8  1  0
 10  9  1  0
 11 10  1  0
 11  5  1  0
 12 11  1  0
 13 12  1  0
 14 13  1  0
 15 14  1  0
 15 10  1  0
 16 15  1  0
 17 16  1  0
 18 17  1  0
 18 14  1  0
 14 19  1  1
  5 20  1  1
 21 18  1  0
  3 22  1  0
  3 23  1  0
  4 24  1  0
  4 25  1  0
  6 26  1  6
  7 27  1  0
  7 28  1  0
  8 29  1  0
  8 30  1  0
  9 31  1  0
  9 32  1  0
 10 33  1  1
 11 34  1  6
 12 35  1  0
 12 36  1  0
 13 37  1  0
 13 38  1  0
 15 39  1  6
 16 40  1  0
 16 41  1  0
 17 42  1  0
 17 43  1  0
 18 44  1  6
 19 45  1  0
 19 46  1  0
 19 47  1  0
 20 48  1  0
 20 49  1  0
 20 50  1  0
 21 51  1  0
M  END
>  <score>  (6) 
-8.224

$$$$
=
     RDKit          3D

 51 54  0  0  0  0  0  0  0  0999 V2000
    0.4860   56.4880   77.0140 O   0  0  0  0  0  0  0  0  0  0  0  0
    0.8910   56.9040   75.9290 C   0  0  0  0  0  0  0  0  0  0  0  0
    2.3060   56.6460   75.4680 C   0  0  0  0  0  0  0  0  0  0  0  0
    2.9150   57.8800   74.8060 C   0  0  0  0  0  0  0  0  0  0  0  0
    2.0220   58.5110   73.6990 C   0  0  1  0  0  0  0  0  0  0  0  0
    0.6310   58.8160   74.3460 C   0  0  2  0  0  0  0  0  0  0  0  0
   -0.0390   57.5760   74.9460 C   0  0  0  0  0  0  0  0  0  0  0  0
   -0.3180   59.5380   73.3840 C   0  0  0  0  0  0  0  0  0  0  0  0
    0.2890   60.8450   72.8840 C   0  0  0  0  0  0  0  0  0  0  0  0
    1.6700   60.6400   72.2460 C   0  0  2  0  0  0  0  0  0  0  0  0
    2.6330   59.8810   73.2160 C   0  0  2  0  0  0  0  0  0  0  0  0
    4.0710   59.7760   72.6440 C   0  0  0  0  0  0  0  0  0  0  0  0
    4.6330   61.1200   72.1460 C   0  0  0  0  0  0  0  0  0  0  0  0
    3.6740   61.8030   71.1620 C   0  0  1  0  0  0  0  0  0  0  0  0
    2.3140   61.9760   71.8650 C   0  0  1  0  0  0  0  0  0  0  0  0
    1.5560   62.9310   70.9450 C   0  0  0  0  0  0  0  0  0  0  0  0
    2.6490   63.8710   70.4030 C   0  0  0  0  0  0  0  0  0  0  0  0
    3.9950   63.2820   70.8680 C   0  0  2  0  0  0  0  0  0  0  0  0
    3.6220   60.9910   69.8430 C   0  0  0  0  0  0  0  0  0  0  0  0
    1.9100   57.5100   72.5230 C   0  0  0  0  0  0  0  0  0  0  0  0
    4.9920   63.4640   69.8820 O   0  0  0  0  0  0  0  0  0  0  0  0
    2.9197   56.3678   76.3375 H   0  0  0  0  0  0  0  0  0  0  0  0
    2.2838   55.8334   74.7269 H   0  0  0  0  0  0  0  0  0  0  0  0
    3.0899   58.6385   75.5832 H   0  0  0  0  0  0  0  0  0  0  0  0
    3.8441   57.5523   74.3166 H   0  0  0  0  0  0  0  0  0  0  0  0
    0.8459   59.5003   75.1800 H   0  0  0  0  0  0  0  0  0  0  0  0
   -0.2862   56.8704   74.1391 H   0  0  0  0  0  0  0  0  0  0  0  0
   -0.9557   57.8823   75.4713 H   0  0  0  0  0  0  0  0  0  0  0  0
   -0.5208   58.8844   72.5228 H   0  0  0  0  0  0  0  0  0  0  0  0
   -1.2481   59.7709   73.9231 H   0  0  0  0  0  0  0  0  0  0  0  0
   -0.3854   61.2840   72.1340 H   0  0  0  0  0  0  0  0  0  0  0  0
    0.4144   61.5108   73.7506 H   0  0  0  0  0  0  0  0  0  0  0  0
    1.5122   60.0396   71.3379 H   0  0  0  0  0  0  0  0  0  0  0  0
    2.7355   60.4852   74.1295 H   0  0  0  0  0  0  0  0  0  0  0  0
    4.7332   59.3931   73.4345 H   0  0  0  0  0  0  0  0  0  0  0  0
    4.0256   59.1024   71.7756 H   0  0  0  0  0  0  0  0  0  0  0  0
    4.7905   61.7831   73.0094 H   0  0  0  0  0  0  0  0  0  0  0  0
    5.5808   60.9242   71.6232 H   0  0  0  0  0  0  0  0  0  0  0  0
    2.3563   62.4220   72.8696 H   0  0  0  0  0  0  0  0  0  0  0  0
    1.0708   62.3814   70.1249 H   0  0  0  0  0  0  0  0  0  0  0  0
    0.7519   63.4719   71.4655 H   0  0  0  0  0  0  0  0  0  0  0  0
    2.6088   63.9085   69.3044 H   0  0  0  0  0  0  0  0  0  0  0  0
    2.5127   64.8980   70.7728 H   0  0  0  0  0  0  0  0  0  0  0  0
    4.4100   63.7762   71.7589 H   0  0  0  0  0  0  0  0  0  0  0  0
    3.5533   59.9180   70.0754 H   0  0  0  0  0  0  0  0  0  0  0  0
    2.7416   61.2967   69.2587 H   0  0  0  0  0  0  0  0  0  0  0  0
    4.5342   61.1819   69.2587 H   0  0  0  0  0  0  0  0  0  0  0  0
    1.7959   56.4902   72.9192 H   0  0  0  0  0  0  0  0  0  0  0  0
    1.0347   57.7642   71.9072 H   0  0  0  0  0  0  0  0  0  0  0  0
    2.8198   57.5645   71.9072 H   0  0  0  0  0  0  0  0  0  0  0  0
    5.8650   63.6234   70.3209 H   0  0  0  0  0  0  0  0  0  0  0  0
  2  1  2  0
  3  2  1  0
  4  3  1  0
  5  4  1  0
  6  5  1  0
  7  2  1  0
  7  6  1  0
  8  6  1  0
  9  8  1  0
 10  9  1  0
 11 10  1  0
 11  5  1  0
 12 11  1  0
 13 12  1  0
 14 13  1  0
 15 14  1  0
 15 10  1  0
 16 15  1  0
 17 16  1  0
 18 17  1  0
 18 14  1  0
 14 19  1  6
  5 20  1  6
 21 18  1  0
  3 22  1  0
  3 23  1  0
  4 24  1  0
  4 25  1  0
  6 26  1  1
  7 27  1  0
  7 28  1  0
  8 29  1  0
  8 30  1  0
  9 31  1  0
  9 32  1  0
 10 33  1  6
 11 34  1  1
 12 35  1  0
 12 36  1  0
 13 37  1  0
 13 38  1  0
 15 39  1  1
 16 40  1  0
 16 41  1  0
 17 42  1  0
 17 43  1  0
 18 44  1  1
 19 45  1  0
 19 46  1  0
 19 47  1  0
 20 48  1  0
 20 49  1  0
 20 50  1  0
 21 51  1  0
M  END
>  <score>  (7) 
-8.201

$$$$
=
     RDKit          3D

 51 54  0  0  0  0  0  0  0  0999 V2000
    5.6340   66.8230   61.6560 O   0  0  0  0  0  0  0  0  0  0  0  0
    4.8820   67.3540   62.4740 C   0  0  0  0  0  0  0  0  0  0  0  0
    4.9830   67.0450   63.9480 C   0  0  0  0  0  0  0  0  0  0  0  0
    3.6040   66.8940   64.5860 C   0  0  0  0  0  0  0  0  0  0  0  0
    2.6320   68.0700   64.2780 C   0  0  1  0  0  0  0  0  0  0  0  0
    2.5500   68.2050   62.7220 C   0  0  2  0  0  0  0  0  0  0  0  0
    3.9130   68.4380   62.0640 C   0  0  0  0  0  0  0  0  0  0  0  0
    1.5390   69.2680   62.2780 C   0  0  0  0  0  0  0  0  0  0  0  0
    0.1450   68.9680   62.8210 C   0  0  0  0  0  0  0  0  0  0  0  0
    0.1370   68.8040   64.3460 C   0  0  2  0  0  0  0  0  0  0  0  0
    1.1850   67.7370   64.8040 C   0  0  2  0  0  0  0  0  0  0  0  0
    1.1050   67.4600   66.3290 C   0  0  0  0  0  0  0  0  0  0  0  0
   -0.3240   67.1730   66.8260 C   0  0  0  0  0  0  0  0  0  0  0  0
   -1.3050   68.2700   66.3910 C   0  0  1  0  0  0  0  0  0  0  0  0
   -1.2440   68.3820   64.8560 C   0  0  1  0  0  0  0  0  0  0  0  0
   -2.4580   69.2430   64.5130 C   0  0  0  0  0  0  0  0  0  0  0  0
   -3.5160   68.8250   65.5510 C   0  0  0  0  0  0  0  0  0  0  0  0
   -2.7940   67.9090   66.5590 C   0  0  2  0  0  0  0  0  0  0  0  0
   -0.9800   69.5830   67.1490 C   0  0  0  0  0  0  0  0  0  0  0  0
    3.1820   69.3550   64.9460 C   0  0  0  0  0  0  0  0  0  0  0  0
   -3.2870   68.1140   67.8680 O   0  0  0  0  0  0  0  0  0  0  0  0
    5.5415   66.1064   64.0786 H   0  0  0  0  0  0  0  0  0  0  0  0
    5.5004   67.8816   64.4404 H   0  0  0  0  0  0  0  0  0  0  0  0
    3.1505   65.9637   64.2134 H   0  0  0  0  0  0  0  0  0  0  0  0
    3.7566   66.8841   65.6753 H   0  0  0  0  0  0  0  0  0  0  0  0
    2.1864   67.2291   62.3679 H   0  0  0  0  0  0  0  0  0  0  0  0
    4.3065   69.4155   62.3795 H   0  0  0  0  0  0  0  0  0  0  0  0
    3.7923   68.4170   60.9708 H   0  0  0  0  0  0  0  0  0  0  0  0
    1.8650   70.2503   62.6505 H   0  0  0  0  0  0  0  0  0  0  0  0
    1.4917   69.2648   61.1790 H   0  0  0  0  0  0  0  0  0  0  0  0
   -0.5258   69.7969   62.5509 H   0  0  0  0  0  0  0  0  0  0  0  0
   -0.1912   68.0186   62.3787 H   0  0  0  0  0  0  0  0  0  0  0  0
    0.3981   69.7846   64.7706 H   0  0  0  0  0  0  0  0  0  0  0  0
    0.9215   66.7809   64.3282 H   0  0  0  0  0  0  0  0  0  0  0  0
    1.7353   66.5881   66.5582 H   0  0  0  0  0  0  0  0  0  0  0  0
    1.4499   68.3698   66.8421 H   0  0  0  0  0  0  0  0  0  0  0  0
   -0.6590   66.2103   66.4126 H   0  0  0  0  0  0  0  0  0  0  0  0
   -0.3063   67.1439   67.9255 H   0  0  0  0  0  0  0  0  0  0  0  0
   -1.3276   67.4302   64.3109 H   0  0  0  0  0  0  0  0  0  0  0  0
   -2.2183   70.3124   64.6078 H   0  0  0  0  0  0  0  0  0  0  0  0
   -2.8004   69.0989   63.4776 H   0  0  0  0  0  0  0  0  0  0  0  0
   -3.9189   69.7115   66.0626 H   0  0  0  0  0  0  0  0  0  0  0  0
   -4.3614   68.3073   65.0743 H   0  0  0  0  0  0  0  0  0  0  0  0
   -2.9582   66.8363   66.3793 H   0  0  0  0  0  0  0  0  0  0  0  0
   -1.0250   69.4013   68.2330 H   0  0  0  0  0  0  0  0  0  0  0  0
    0.0296   69.9238   66.8759 H   0  0  0  0  0  0  0  0  0  0  0  0
   -1.7141   70.3554   66.8759 H   0  0  0  0  0  0  0  0  0  0  0  0
    3.1362   69.2480   66.0398 H   0  0  0  0  0  0  0  0  0  0  0  0
    4.2259   69.5113   64.6362 H   0  0  0  0  0  0  0  0  0  0  0  0
    2.5745   70.2181   64.6362 H   0  0  0  0  0  0  0  0  0  0  0  0
   -2.6041   67.8300   68.5261 H   0  0  0  0  0  0  0  0  0  0  0  0
  2  1  2  0
  3  2  1  0
  4  3  1  0
  5  4  1  0
  6  5  1  0
  7  2  1  0
  7  6  1  0
  8  6  1  0
  9  8  1  0
 10  9  1  0
 11 10  1  0
 11  5  1  0
 12 11  1  0
 13 12  1  0
 14 13  1  0
 15 14  1  0
 15 10  1  0
 16 15  1  0
 17 16  1  0
 18 17  1  0
 18 14  1  0
 14 19  1  1
  5 20  1  1
 21 18  1  0
  3 22  1  0
  3 23  1  0
  4 24  1  0
  4 25  1  0
  6 26  1  6
  7 27  1  0
  7 28  1  0
  8 29  1  0
  8 30  1  0
  9 31  1  0
  9 32  1  0
 10 33  1  1
 11 34  1  6
 12 35  1  0
 12 36  1  0
 13 37  1  0
 13 38  1  0
 15 39  1  6
 16 40  1  0
 16 41  1  0
 17 42  1  0
 17 43  1  0
 18 44  1  6
 19 45  1  0
 19 46  1  0
 19 47  1  0
 20 48  1  0
 20 49  1  0
 20 50  1  0
 21 51  1  0
M  END
>  <score>  (8) 
-8.085

$$$$
=
     RDKit          3D

 51 54  0  0  0  0  0  0  0  0999 V2000
   -3.0970   59.9880   77.1800 O   0  0  0  0  0  0  0  0  0  0  0  0
   -2.2830   59.6910   76.3060 C   0  0  0  0  0  0  0  0  0  0  0  0
   -1.1540   58.7270   76.5790 C   0  0  0  0  0  0  0  0  0  0  0  0
    0.1530   59.1980   75.9460 C   0  0  0  0  0  0  0  0  0  0  0  0
    0.0280   59.5740   74.4420 C   0  0  1  0  0  0  0  0  0  0  0  0
   -1.1020   60.6490   74.3270 C   0  0  2  0  0  0  0  0  0  0  0  0
   -2.4460   60.1710   74.8820 C   0  0  0  0  0  0  0  0  0  0  0  0
   -1.2590   61.1850   72.9000 C   0  0  0  0  0  0  0  0  0  0  0  0
    0.0460   61.7870   72.3880 C   0  0  0  0  0  0  0  0  0  0  0  0
    1.2170   60.8000   72.4790 C   0  0  2  0  0  0  0  0  0  0  0  0
    1.3650   60.2330   73.9290 C   0  0  2  0  0  0  0  0  0  0  0  0
    2.6210   59.3330   74.0770 C   0  0  0  0  0  0  0  0  0  0  0  0
    3.9080   59.9840   73.5350 C   0  0  0  0  0  0  0  0  0  0  0  0
    3.7270   60.4820   72.0960 C   0  0  1  0  0  0  0  0  0  0  0  0
    2.5380   61.4630   72.0770 C   0  0  1  0  0  0  0  0  0  0  0  0
    2.6490   62.1310   70.7090 C   0  0  0  0  0  0  0  0  0  0  0  0
    4.1660   62.2260   70.4630 C   0  0  0  0  0  0  0  0  0  0  0  0
    4.8380   61.4250   71.5950 C   0  0  2  0  0  0  0  0  0  0  0  0
    3.5790   59.2690   71.1430 C   0  0  0  0  0  0  0  0  0  0  0  0
   -0.3020   58.2930   73.6360 C   0  0  0  0  0  0  0  0  0  0  0  0
    5.9880   60.7500   71.1210 O   0  0  0  0  0  0  0  0  0  0  0  0
   -1.0132   58.6410   77.6666 H   0  0  0  0  0  0  0  0  0  0  0  0
   -1.4184   57.7542   76.1388 H   0  0  0  0  0  0  0  0  0  0  0  0
    0.5042   60.0836   76.4959 H   0  0  0  0  0  0  0  0  0  0  0  0
    0.8574   58.3553   76.0059 H   0  0  0  0  0  0  0  0  0  0  0  0
   -0.7708   61.4834   74.9626 H   0  0  0  0  0  0  0  0  0  0  0  0
   -2.8221   59.3446   74.2610 H   0  0  0  0  0  0  0  0  0  0  0  0
   -3.1589   61.0085   74.8654 H   0  0  0  0  0  0  0  0  0  0  0  0
   -1.5569   60.3589   72.2376 H   0  0  0  0  0  0  0  0  0  0  0  0
   -2.0260   61.9734   72.9074 H   0  0  0  0  0  0  0  0  0  0  0  0
   -0.0883   62.0807   71.3365 H   0  0  0  0  0  0  0  0  0  0  0  0
    0.2871   62.6548   73.0195 H   0  0  0  0  0  0  0  0  0  0  0  0
    0.9940   59.9786   71.7822 H   0  0  0  0  0  0  0  0  0  0  0  0
    1.5435   61.0818   74.6055 H   0  0  0  0  0  0  0  0  0  0  0  0
    2.7661   59.1097   75.1443 H   0  0  0  0  0  0  0  0  0  0  0  0
    2.4415   58.4249   73.4827 H   0  0  0  0  0  0  0  0  0  0  0  0
    4.1741   60.8368   74.1769 H   0  0  0  0  0  0  0  0  0  0  0  0
    4.7046   59.2254   73.5385 H   0  0  0  0  0  0  0  0  0  0  0  0
    2.5609   62.2469   72.8483 H   0  0  0  0  0  0  0  0  0  0  0  0
    2.1648   61.5183   69.9342 H   0  0  0  0  0  0  0  0  0  0  0  0
    2.1523   63.1119   70.6752 H   0  0  0  0  0  0  0  0  0  0  0  0
    4.4214   61.7915   69.4853 H   0  0  0  0  0  0  0  0  0  0  0  0
    4.5056   63.2722   70.4571 H   0  0  0  0  0  0  0  0  0  0  0  0
    5.2175   62.0521   72.4152 H   0  0  0  0  0  0  0  0  0  0  0  0
    3.4667   58.3489   71.7353 H   0  0  0  0  0  0  0  0  0  0  0  0
    2.6911   59.4073   70.5086 H   0  0  0  0  0  0  0  0  0  0  0  0
    4.4741   59.1898   70.5086 H   0  0  0  0  0  0  0  0  0  0  0  0
   -0.5147   57.4672   74.3309 H   0  0  0  0  0  0  0  0  0  0  0  0
   -1.1826   58.4751   73.0024 H   0  0  0  0  0  0  0  0  0  0  0  0
    0.5569   58.0270   73.0024 H   0  0  0  0  0  0  0  0  0  0  0  0
    6.5258   60.4344   71.8899 H   0  0  0  0  0  0  0  0  0  0  0  0
  2  1  2  0
  3  2  1  0
  4  3  1  0
  5  4  1  0
  6  5  1  0
  7  2  1  0
  7  6  1  0
  8  6  1  0
  9  8  1  0
 10  9  1  0
 11 10  1  0
 11  5  1  0
 12 11  1  0
 13 12  1  0
 14 13  1  0
 15 14  1  0
 15 10  1  0
 16 15  1  0
 17 16  1  0
 18 17  1  0
 18 14  1  0
 14 19  1  6
  5 20  1  6
 21 18  1  0
  3 22  1  0
  3 23  1  0
  4 24  1  0
  4 25  1  0
  6 26  1  1
  7 27  1  0
  7 28  1  0
  8 29  1  0
  8 30  1  0
  9 31  1  0
  9 32  1  0
 10 33  1  6
 11 34  1  1
 12 35  1  0
 12 36  1  0
 13 37  1  0
 13 38  1  0
 15 39  1  1
 16 40  1  0
 16 41  1  0
 17 42  1  0
 17 43  1  0
 18 44  1  1
 19 45  1  0
 19 46  1  0
 19 47  1  0
 20 48  1  0
 20 49  1  0
 20 50  1  0
 21 51  1  0
M  END
>  <score>  (9) 
-7.422

$$$$
