=
     RDKit          3D

 45 48  0  0  0  0  0  0  0  0999 V2000
    4.6800   70.9560   68.3930 C   0  0  0  0  0  0  0  0  0  0  0  0
    3.5160   70.2640   69.0920 C   0  0  0  0  0  0  0  0  0  0  0  0
    2.4460   69.8280   68.0950 C   0  0  0  0  0  0  0  0  0  0  0  0
    3.0280   68.9440   66.9850 C   0  0  2  0  0  0  0  0  0  0  0  0
    4.1520   69.7190   66.3040 N   0  0  1  0  0  4  0  0  0  0  0  0
    5.2630   70.0970   67.2810 C   0  0  0  0  0  0  0  0  0  0  0  0
    4.7050   69.0370   65.0700 C   0  0  0  0  0  0  0  0  0  0  0  0
    3.5790   68.6280   64.0970 C   0  0  2  0  0  0  0  0  0  0  0  0
    2.2180   69.1420   64.5720 C   0  0  0  0  0  0  0  0  0  0  0  0
    1.9450   68.5380   65.9500 C   0  0  1  0  0  0  0  0  0  0  0  0
    1.8130   67.0080   65.8100 C   0  0  0  0  0  0  0  0  0  0  0  0
    3.0270   66.3850   65.1310 N   0  0  2  0  0  4  0  0  0  0  0  0
    3.4570   67.1020   63.8510 C   0  0  2  0  0  0  0  0  0  0  0  0
    4.7370   66.4480   63.3200 C   0  0  0  0  0  0  0  0  0  0  0  0
    4.5360   64.9570   63.0660 C   0  0  0  0  0  0  0  0  0  0  0  0
    4.0160   64.2480   64.3110 C   0  0  0  0  0  0  0  0  0  0  0  0
    2.7490   64.9000   64.8450 C   0  0  0  0  0  0  0  0  0  0  0  0
    4.3239   71.9032   67.9617 H   0  0  0  0  0  0  0  0  0  0  0  0
    5.4697   71.1328   69.1380 H   0  0  0  0  0  0  0  0  0  0  0  0
    3.8934   69.3772   69.6223 H   0  0  0  0  0  0  0  0  0  0  0  0
    3.0624   70.9770   69.7962 H   0  0  0  0  0  0  0  0  0  0  0  0
    1.6697   69.2620   68.6307 H   0  0  0  0  0  0  0  0  0  0  0  0
    2.0257   70.7309   67.6279 H   0  0  0  0  0  0  0  0  0  0  0  0
    3.4134   68.0128   67.4258 H   0  0  0  0  0  0  0  0  0  0  0  0
    3.7155   70.5905   65.9712 H   0  0  0  0  0  0  0  0  0  0  0  0
    5.7003   69.1843   67.7119 H   0  0  0  0  0  0  0  0  0  0  0  0
    6.0457   70.6596   66.7510 H   0  0  0  0  0  0  0  0  0  0  0  0
    5.3883   69.7285   64.5554 H   0  0  0  0  0  0  0  0  0  0  0  0
    5.2346   68.1265   65.3871 H   0  0  0  0  0  0  0  0  0  0  0  0
    3.8694   69.0949   63.1443 H   0  0  0  0  0  0  0  0  0  0  0  0
    2.2361   70.2397   64.6415 H   0  0  0  0  0  0  0  0  0  0  0  0
    1.4290   68.8523   63.8624 H   0  0  0  0  0  0  0  0  0  0  0  0
    0.9980   68.9399   66.3394 H   0  0  0  0  0  0  0  0  0  0  0  0
    1.7036   66.5687   66.8125 H   0  0  0  0  0  0  0  0  0  0  0  0
    0.9326   66.8010   65.1838 H   0  0  0  0  0  0  0  0  0  0  0  0
    3.8158   66.4848   65.7857 H   0  0  0  0  0  0  0  0  0  0  0  0
    2.6929   66.9952   63.0669 H   0  0  0  0  0  0  0  0  0  0  0  0
    5.0238   66.9363   62.3769 H   0  0  0  0  0  0  0  0  0  0  0  0
    5.5263   66.5670   64.0768 H   0  0  0  0  0  0  0  0  0  0  0  0
    3.8097   64.8273   62.2502 H   0  0  0  0  0  0  0  0  0  0  0  0
    5.5073   64.5169   62.7962 H   0  0  0  0  0  0  0  0  0  0  0  0
    3.7979   63.1997   64.0588 H   0  0  0  0  0  0  0  0  0  0  0  0
    4.7893   64.3145   65.0904 H   0  0  0  0  0  0  0  0  0  0  0  0
    1.9471   64.8131   64.0971 H   0  0  0  0  0  0  0  0  0  0  0  0
    2.4369   64.3970   65.7721 H   0  0  0  0  0  0  0  0  0  0  0  0
  2  1  1  0
  3  2  1  0
  4  3  1  0
  5  4  1  0
  6  5  1  0
  6  1  1  0
  7  5  1  0
  8  7  1  0
  9  8  1  0
 10  9  1  0
 10  4  1  0
 11 10  1  0
 12 11  1  0
 13 12  1  0
 13  8  1  0
 14 13  1  0
 15 14  1  0
 16 15  1  0
 17 16  1  0
 17 12  1  0
  1 18  1  0
  1 19  1  0
  2 20  1  0
  2 21  1  0
  3 22  1  0
  3 23  1  0
  4 24  1  1
  5 25  1  6
  6 26  1  0
  6 27  1  0
  7 28  1  0
  7 29  1  0
  8 30  1  6
  9 31  1  0
  9 32  1  0
 10 33  1  1
 11 34  1  0
 11 35  1  0
 12 36  1  1
 13 37  1  6
 14 38  1  0
 14 39  1  0
 15 40  1  0
 15 41  1  0
 16 42  1  0
 16 43  1  0
 17 44  1  0
 17 45  1  0
M  CHG  2   5   1  12   1
M  END
>  <score>  (1) 
-8.51

$$$$
=
     RDKit          3D

 45 48  0  0  0  0  0  0  0  0999 V2000
    5.1200   70.3350   68.0370 C   0  0  0  0  0  0  0  0  0  0  0  0
    6.0340   70.4670   66.8260 C   0  0  0  0  0  0  0  0  0  0  0  0
    5.7970   69.3420   65.8220 C   0  0  0  0  0  0  0  0  0  0  0  0
    4.3260   69.2580   65.3970 C   0  0  2  0  0  0  0  0  0  0  0  0
    3.4810   69.0800   66.6540 N   0  0  1  0  0  4  0  0  0  0  0  0
    3.6560   70.2390   67.6330 C   0  0  0  0  0  0  0  0  0  0  0  0
    2.0170   68.8070   66.3740 C   0  0  0  0  0  0  0  0  0  0  0  0
    1.8410   67.6550   65.3620 C   0  0  2  0  0  0  0  0  0  0  0  0
    3.1830   67.0070   65.0150 C   0  0  0  0  0  0  0  0  0  0  0  0
    4.0820   68.0850   64.4090 C   0  0  1  0  0  0  0  0  0  0  0  0
    3.4660   68.5610   63.0770 C   0  0  0  0  0  0  0  0  0  0  0  0
    2.0260   69.0280   63.2430 N   0  0  2  0  0  4  0  0  0  0  0  0
    1.1470   68.0600   64.0350 C   0  0  2  0  0  0  0  0  0  0  0  0
   -0.2410   68.6820   64.2180 C   0  0  0  0  0  0  0  0  0  0  0  0
   -0.8800   69.0200   62.8740 C   0  0  0  0  0  0  0  0  0  0  0  0
    0.0300   69.9100   62.0360 C   0  0  0  0  0  0  0  0  0  0  0  0
    1.4120   69.2980   61.8590 C   0  0  0  0  0  0  0  0  0  0  0  0
    5.3958   69.4274   68.5939 H   0  0  0  0  0  0  0  0  0  0  0  0
    5.2446   71.2339   68.6587 H   0  0  0  0  0  0  0  0  0  0  0  0
    5.8394   71.4317   66.3346 H   0  0  0  0  0  0  0  0  0  0  0  0
    7.0765   70.4074   67.1719 H   0  0  0  0  0  0  0  0  0  0  0  0
    6.4152   69.5243   64.9306 H   0  0  0  0  0  0  0  0  0  0  0  0
    6.0683   68.3911   66.3039 H   0  0  0  0  0  0  0  0  0  0  0  0
    4.0454   70.1824   64.8709 H   0  0  0  0  0  0  0  0  0  0  0  0
    3.8452   68.2284   67.1046 H   0  0  0  0  0  0  0  0  0  0  0  0
    3.3448   71.1777   67.1514 H   0  0  0  0  0  0  0  0  0  0  0  0
    3.0366   70.0661   68.5254 H   0  0  0  0  0  0  0  0  0  0  0  0
    1.5174   68.5353   67.3156 H   0  0  0  0  0  0  0  0  0  0  0  0
    1.5721   69.7162   65.9434 H   0  0  0  0  0  0  0  0  0  0  0  0
    1.1799   66.9450   65.8806 H   0  0  0  0  0  0  0  0  0  0  0  0
    3.6482   66.6004   65.9251 H   0  0  0  0  0  0  0  0  0  0  0  0
    3.0376   66.1830   64.3009 H   0  0  0  0  0  0  0  0  0  0  0  0
    5.0745   67.6560   64.2067 H   0  0  0  0  0  0  0  0  0  0  0  0
    4.0665   69.3963   62.6876 H   0  0  0  0  0  0  0  0  0  0  0  0
    3.4664   67.7089   62.3814 H   0  0  0  0  0  0  0  0  0  0  0  0
    2.0585   69.8943   63.7993 H   0  0  0  0  0  0  0  0  0  0  0  0
    1.0063   67.1191   63.4827 H   0  0  0  0  0  0  0  0  0  0  0  0
   -0.8858   67.9682   64.7517 H   0  0  0  0  0  0  0  0  0  0  0  0
   -0.1306   69.6130   64.7933 H   0  0  0  0  0  0  0  0  0  0  0  0
   -1.0734   68.0869   62.3245 H   0  0  0  0  0  0  0  0  0  0  0  0
   -1.8182   69.5625   63.0624 H   0  0  0  0  0  0  0  0  0  0  0  0
   -0.4258   70.0527   61.0451 H   0  0  0  0  0  0  0  0  0  0  0  0
    0.1459   70.8703   62.5599 H   0  0  0  0  0  0  0  0  0  0  0  0
    1.3273   68.3525   61.3032 H   0  0  0  0  0  0  0  0  0  0  0  0
    2.0549   69.9925   61.2984 H   0  0  0  0  0  0  0  0  0  0  0  0
  2  1  1  0
  3  2  1  0
  4  3  1  0
  5  4  1  0
  6  5  1  0
  6  1  1  0
  7  5  1  0
  8  7  1  0
  9  8  1  0
 10  9  1  0
 10  4  1  0
 11 10  1  0
 12 11  1  0
 13 12  1  0
 13  8  1  0
 14 13  1  0
 15 14  1  0
 16 15  1  0
 17 16  1  0
 17 12  1  0
  1 18  1  0
  1 19  1  0
  2 20  1  0
  2 21  1  0
  3 22  1  0
  3 23  1  0
  4 24  1  6
  5 25  1  1
  6 26  1  0
  6 27  1  0
  7 28  1  0
  7 29  1  0
  8 30  1  1
  9 31  1  0
  9 32  1  0
 10 33  1  6
 11 34  1  0
 11 35  1  0
 12 36  1  1
 13 37  1  6
 14 38  1  0
 14 39  1  0
 15 40  1  0
 15 41  1  0
 16 42  1  0
 16 43  1  0
 17 44  1  0
 17 45  1  0
M  CHG  2   5   1  12   1
M  END
>  <score>  (2) 
-8.198

$$$$
=
     RDKit          3D

 45 48  0  0  0  0  0  0  0  0999 V2000
    3.0210   63.5120   69.7170 C   0  0  0  0  0  0  0  0  0  0  0  0
    3.3130   62.3480   68.7790 C   0  0  0  0  0  0  0  0  0  0  0  0
    4.0740   61.2330   69.4910 C   0  0  0  0  0  0  0  0  0  0  0  0
    3.3390   60.7560   70.7490 C   0  0  2  0  0  0  0  0  0  0  0  0
    3.1260   61.9630   71.6570 N   0  0  1  0  0  4  0  0  0  0  0  0
    2.3030   63.0550   70.9780 C   0  0  0  0  0  0  0  0  0  0  0  0
    2.5650   61.6120   73.0210 C   0  0  0  0  0  0  0  0  0  0  0  0
    3.3800   60.4880   73.6940 C   0  0  2  0  0  0  0  0  0  0  0  0
    4.6150   60.1230   72.8680 C   0  0  0  0  0  0  0  0  0  0  0  0
    4.1370   59.6520   71.4940 C   0  0  1  0  0  0  0  0  0  0  0  0
    3.3220   58.3540   71.6630 C   0  0  0  0  0  0  0  0  0  0  0  0
    2.1760   58.5190   72.6530 N   0  0  2  0  0  4  0  0  0  0  0  0
    2.5840   59.1850   73.9680 C   0  0  2  0  0  0  0  0  0  0  0  0
    1.3360   59.3840   74.8340 C   0  0  0  0  0  0  0  0  0  0  0  0
    0.6230   58.0610   75.0950 C   0  0  0  0  0  0  0  0  0  0  0  0
    0.2960   57.3420   73.7910 C   0  0  0  0  0  0  0  0  0  0  0  0
    1.5320   57.1500   72.9250 C   0  0  0  0  0  0  0  0  0  0  0  0
    3.9714   63.9875   70.0009 H   0  0  0  0  0  0  0  0  0  0  0  0
    2.3665   64.2209   69.1887 H   0  0  0  0  0  0  0  0  0  0  0  0
    2.3613   61.9463   68.4009 H   0  0  0  0  0  0  0  0  0  0  0  0
    3.9374   62.7189   67.9528 H   0  0  0  0  0  0  0  0  0  0  0  0
    4.1884   60.3834   68.8017 H   0  0  0  0  0  0  0  0  0  0  0  0
    5.0538   61.6286   69.7966 H   0  0  0  0  0  0  0  0  0  0  0  0
    2.3739   60.3136   70.4613 H   0  0  0  0  0  0  0  0  0  0  0  0
    4.0690   62.3399   71.8290 H   0  0  0  0  0  0  0  0  0  0  0  0
    1.3119   62.6578   70.7135 H   0  0  0  0  0  0  0  0  0  0  0  0
    2.1823   63.9067   71.6636 H   0  0  0  0  0  0  0  0  0  0  0  0
    2.5935   62.5066   73.6605 H   0  0  0  0  0  0  0  0  0  0  0  0
    1.5317   61.2584   72.8893 H   0  0  0  0  0  0  0  0  0  0  0  0
    3.6650   60.9141   74.6672 H   0  0  0  0  0  0  0  0  0  0  0  0
    5.2641   61.0040   72.7564 H   0  0  0  0  0  0  0  0  0  0  0  0
    5.1899   59.3292   73.3673 H   0  0  0  0  0  0  0  0  0  0  0  0
    5.0113   59.4397   70.8612 H   0  0  0  0  0  0  0  0  0  0  0  0
    2.9072   58.0664   70.6857 H   0  0  0  0  0  0  0  0  0  0  0  0
    3.9978   57.5795   72.0547 H   0  0  0  0  0  0  0  0  0  0  0  0
    1.4964   59.1571   72.2149 H   0  0  0  0  0  0  0  0  0  0  0  0
    3.2699   58.5399   74.5367 H   0  0  0  0  0  0  0  0  0  0  0  0
    1.6347   59.8255   75.7962 H   0  0  0  0  0  0  0  0  0  0  0  0
    0.6445   60.0499   74.2969 H   0  0  0  0  0  0  0  0  0  0  0  0
    1.2735   57.4176   75.7057 H   0  0  0  0  0  0  0  0  0  0  0  0
   -0.3196   58.2722   75.6212 H   0  0  0  0  0  0  0  0  0  0  0  0
   -0.1307   56.3557   74.0258 H   0  0  0  0  0  0  0  0  0  0  0  0
   -0.4208   57.9603   73.2307 H   0  0  0  0  0  0  0  0  0  0  0  0
    2.2510   56.5026   73.4484 H   0  0  0  0  0  0  0  0  0  0  0  0
    1.2465   56.6800   71.9723 H   0  0  0  0  0  0  0  0  0  0  0  0
  2  1  1  0
  3  2  1  0
  4  3  1  0
  5  4  1  0
  6  5  1  0
  6  1  1  0
  7  5  1  0
  8  7  1  0
  9  8  1  0
 10  9  1  0
 10  4  1  0
 11 10  1  0
 12 11  1  0
 13 12  1  0
 13  8  1  0
 14 13  1  0
 15 14  1  0
 16 15  1  0
 17 16  1  0
 17 12  1  0
  1 18  1  0
  1 19  1  0
  2 20  1  0
  2 21  1  0
  3 22  1  0
  3 23  1  0
  4 24  1  6
  5 25  1  1
  6 26  1  0
  6 27  1  0
  7 28  1  0
  7 29  1  0
  8 30  1  1
  9 31  1  0
  9 32  1  0
 10 33  1  6
 11 34  1  0
 11 35  1  0
 12 36  1  6
 13 37  1  1
 14 38  1  0
 14 39  1  0
 15 40  1  0
 15 41  1  0
 16 42  1  0
 16 43  1  0
 17 44  1  0
 17 45  1  0
M  CHG  2   5   1  12   1
M  END
>  <score>  (3) 
-7.072

$$$$
=
     RDKit          3D

 45 48  0  0  0  0  0  0  0  0999 V2000
    0.1080   66.0330   70.4420 C   0  0  0  0  0  0  0  0  0  0  0  0
   -0.6760   65.6510   69.1920 C   0  0  0  0  0  0  0  0  0  0  0  0
   -0.8370   66.8390   68.2490 C   0  0  0  0  0  0  0  0  0  0  0  0
    0.5150   67.4630   67.8830 C   0  0  2  0  0  0  0  0  0  0  0  0
    1.2170   67.8610   69.1780 N   0  0  1  0  0  4  0  0  0  0  0  0
    1.4480   66.6650   70.0970 C   0  0  0  0  0  0  0  0  0  0  0  0
    2.4920   68.6520   68.9640 C   0  0  0  0  0  0  0  0  0  0  0  0
    2.2640   69.8440   68.0110 C   0  0  2  0  0  0  0  0  0  0  0  0
    0.7860   69.9910   67.6430 C   0  0  0  0  0  0  0  0  0  0  0  0
    0.3440   68.6980   66.9570 C   0  0  1  0  0  0  0  0  0  0  0  0
    1.1140   68.5460   65.6300 C   0  0  0  0  0  0  0  0  0  0  0  0
    2.6230   68.6130   65.8290 N   0  0  2  0  0  4  0  0  0  0  0  0
    3.0830   69.7860   66.6940 C   0  0  2  0  0  0  0  0  0  0  0  0
    4.5970   69.6890   66.9020 C   0  0  0  0  0  0  0  0  0  0  0  0
    5.3410   69.6740   65.5690 C   0  0  0  0  0  0  0  0  0  0  0  0
    4.8240   68.5650   64.6600 C   0  0  0  0  0  0  0  0  0  0  0  0
    3.3190   68.6540   64.4580 C   0  0  0  0  0  0  0  0  0  0  0  0
   -0.4841   66.7513   71.0281 H   0  0  0  0  0  0  0  0  0  0  0  0
    0.3006   65.1161   71.0184 H   0  0  0  0  0  0  0  0  0  0  0  0
   -0.1405   64.8469   68.6659 H   0  0  0  0  0  0  0  0  0  0  0  0
   -1.6775   65.3172   69.5011 H   0  0  0  0  0  0  0  0  0  0  0  0
   -1.3327   66.4980   67.3281 H   0  0  0  0  0  0  0  0  0  0  0  0
   -1.4387   67.6036   68.7621 H   0  0  0  0  0  0  0  0  0  0  0  0
    1.1166   66.7286   67.3273 H   0  0  0  0  0  0  0  0  0  0  0  0
    0.5647   68.5013   69.6528 H   0  0  0  0  0  0  0  0  0  0  0  0
    2.0828   65.9259   69.5864 H   0  0  0  0  0  0  0  0  0  0  0  0
    1.9476   66.9982   71.0186 H   0  0  0  0  0  0  0  0  0  0  0  0
    2.8440   69.0322   69.9343 H   0  0  0  0  0  0  0  0  0  0  0  0
    3.2401   67.9853   68.5103 H   0  0  0  0  0  0  0  0  0  0  0  0
    2.6176   70.7131   68.5851 H   0  0  0  0  0  0  0  0  0  0  0  0
    0.1887   70.1554   68.5519 H   0  0  0  0  0  0  0  0  0  0  0  0
    0.6408   70.8507   66.9723 H   0  0  0  0  0  0  0  0  0  0  0  0
   -0.7321   68.7557   66.7364 H   0  0  0  0  0  0  0  0  0  0  0  0
    0.8587   67.5745   65.1816 H   0  0  0  0  0  0  0  0  0  0  0  0
    0.8228   69.3791   64.9734 H   0  0  0  0  0  0  0  0  0  0  0  0
    2.8914   67.7633   66.3455 H   0  0  0  0  0  0  0  0  0  0  0  0
    2.8898   70.7439   66.1889 H   0  0  0  0  0  0  0  0  0  0  0  0
    4.9339   70.5551   67.4905 H   0  0  0  0  0  0  0  0  0  0  0  0
    4.8149   68.7497   67.4314 H   0  0  0  0  0  0  0  0  0  0  0  0
    5.1993   70.6432   65.0684 H   0  0  0  0  0  0  0  0  0  0  0  0
    6.4074   69.4917   65.7680 H   0  0  0  0  0  0  0  0  0  0  0  0
    5.3198   68.6469   63.6815 H   0  0  0  0  0  0  0  0  0  0  0  0
    5.0478   67.5998   65.1378 H   0  0  0  0  0  0  0  0  0  0  0  0
    3.0711   69.5962   63.9473 H   0  0  0  0  0  0  0  0  0  0  0  0
    2.9772   67.8078   63.8438 H   0  0  0  0  0  0  0  0  0  0  0  0
  2  1  1  0
  3  2  1  0
  4  3  1  0
  5  4  1  0
  6  5  1  0
  6  1  1  0
  7  5  1  0
  8  7  1  0
  9  8  1  0
 10  9  1  0
 10  4  1  0
 11 10  1  0
 12 11  1  0
 13 12  1  0
 13  8  1  0
 14 13  1  0
 15 14  1  0
 16 15  1  0
 17 16  1  0
 17 12  1  0
  1 18  1  0
  1 19  1  0
  2 20  1  0
  2 21  1  0
  3 22  1  0
  3 23  1  0
  4 24  1  6
  5 25  1  1
  6 26  1  0
  6 27  1  0
  7 28  1  0
  7 29  1  0
  8 30  1  1
  9 31  1  0
  9 32  1  0
 10 33  1  6
 11 34  1  0
 11 35  1  0
 12 36  1  1
 13 37  1  6
 14 38  1  0
 14 39  1  0
 15 40  1  0
 15 41  1  0
 16 42  1  0
 16 43  1  0
 17 44  1  0
 17 45  1  0
M  CHG  2   5   1  12   1
M  END
>  <score>  (4) 
-7.034

$$$$
=
     RDKit          3D

 45 48  0  0  0  0  0  0  0  0999 V2000
    1.2420   56.4380   73.7940 C   0  0  0  0  0  0  0  0  0  0  0  0
    0.6460   57.5180   74.6880 C   0  0  0  0  0  0  0  0  0  0  0  0
    1.6270   58.6660   74.9070 C   0  0  0  0  0  0  0  0  0  0  0  0
    2.1190   59.2570   73.5800 C   0  0  2  0  0  0  0  0  0  0  0  0
    2.7420   58.1290   72.7640 N   0  0  1  0  0  4  0  0  0  0  0  0
    1.7460   57.0080   72.4770 C   0  0  0  0  0  0  0  0  0  0  0  0
    3.4300   58.5980   71.4970 C   0  0  0  0  0  0  0  0  0  0  0  0
    4.4150   59.7510   71.7830 C   0  0  2  0  0  0  0  0  0  0  0  0
    4.5370   60.0210   73.2840 C   0  0  0  0  0  0  0  0  0  0  0  0
    3.1490   60.3950   73.8070 C   0  0  1  0  0  0  0  0  0  0  0  0
    2.7090   61.7220   73.1550 C   0  0  0  0  0  0  0  0  0  0  0  0
    2.7620   61.6620   71.6340 N   0  0  2  0  0  4  0  0  0  0  0  0
    4.0670   61.0900   71.0810 C   0  0  2  0  0  0  0  0  0  0  0  0
    3.9610   60.9880   69.5560 C   0  0  0  0  0  0  0  0  0  0  0  0
    3.6550   62.3450   68.9290 C   0  0  0  0  0  0  0  0  0  0  0  0
    2.4050   62.9680   69.5410 C   0  0  0  0  0  0  0  0  0  0  0  0
    2.5050   63.0630   71.0560 C   0  0  0  0  0  0  0  0  0  0  0  0
    2.0827   55.9635   74.3213 H   0  0  0  0  0  0  0  0  0  0  0  0
    0.4519   55.7064   73.5693 H   0  0  0  0  0  0  0  0  0  0  0  0
   -0.2652   57.9118   74.2141 H   0  0  0  0  0  0  0  0  0  0  0  0
    0.4159   57.0691   75.6655 H   0  0  0  0  0  0  0  0  0  0  0  0
    1.1262   59.4568   75.4848 H   0  0  0  0  0  0  0  0  0  0  0  0
    2.4989   58.2714   75.4492 H   0  0  0  0  0  0  0  0  0  0  0  0
    1.2687   59.6999   73.0408 H   0  0  0  0  0  0  0  0  0  0  0  0
    3.4860   57.7433   73.3629 H   0  0  0  0  0  0  0  0  0  0  0  0
    0.8985   57.4074   71.9006 H   0  0  0  0  0  0  0  0  0  0  0  0
    2.2392   56.2151   71.8956 H   0  0  0  0  0  0  0  0  0  0  0  0
    3.9839   57.7552   71.0579 H   0  0  0  0  0  0  0  0  0  0  0  0
    2.6607   58.9652   70.8018 H   0  0  0  0  0  0  0  0  0  0  0  0
    5.3682   59.3950   71.3651 H   0  0  0  0  0  0  0  0  0  0  0  0
    4.8998   59.1187   73.7981 H   0  0  0  0  0  0  0  0  0  0  0  0
    5.2503   60.8373   73.4705 H   0  0  0  0  0  0  0  0  0  0  0  0
    3.1989   60.5358   74.8968 H   0  0  0  0  0  0  0  0  0  0  0  0
    1.6771   61.9437   73.4649 H   0  0  0  0  0  0  0  0  0  0  0  0
    3.4044   62.5074   73.4861 H   0  0  0  0  0  0  0  0  0  0  0  0
    2.0230   61.0083   71.3383 H   0  0  0  0  0  0  0  0  0  0  0  0
    4.9109   61.7608   71.2997 H   0  0  0  0  0  0  0  0  0  0  0  0
    4.9148   60.6149   69.1548 H   0  0  0  0  0  0  0  0  0  0  0  0
    3.1392   60.2992   69.3106 H   0  0  0  0  0  0  0  0  0  0  0  0
    4.5092   63.0177   69.0957 H   0  0  0  0  0  0  0  0  0  0  0  0
    3.4794   62.1990   67.8530 H   0  0  0  0  0  0  0  0  0  0  0  0
    2.2728   63.9792   69.1288 H   0  0  0  0  0  0  0  0  0  0  0  0
    1.5469   62.3253   69.2946 H   0  0  0  0  0  0  0  0  0  0  0  0
    3.3348   63.7315   71.3288 H   0  0  0  0  0  0  0  0  0  0  0  0
    1.5658   63.4647   71.4641 H   0  0  0  0  0  0  0  0  0  0  0  0
  2  1  1  0
  3  2  1  0
  4  3  1  0
  5  4  1  0
  6  5  1  0
  6  1  1  0
  7  5  1  0
  8  7  1  0
  9  8  1  0
 10  9  1  0
 10  4  1  0
 11 10  1  0
 12 11  1  0
 13 12  1  0
 13  8  1  0
 14 13  1  0
 15 14  1  0
 16 15  1  0
 17 16  1  0
 17 12  1  0
  1 18  1  0
  1 19  1  0
  2 20  1  0
  2 21  1  0
  3 22  1  0
  3 23  1  0
  4 24  1  6
  5 25  1  1
  6 26  1  0
  6 27  1  0
  7 28  1  0
  7 29  1  0
  8 30  1  6
  9 31  1  0
  9 32  1  0
 10 33  1  1
 11 34  1  0
 11 35  1  0
 12 36  1  6
 13 37  1  6
 14 38  1  0
 14 39  1  0
 15 40  1  0
 15 41  1  0
 16 42  1  0
 16 43  1  0
 17 44  1  0
 17 45  1  0
M  CHG  2   5   1  12   1
M  END
>  <score>  (5) 
-6.865

$$$$
=
     RDKit          3D

 45 48  0  0  0  0  0  0  0  0999 V2000
   -0.3910   64.1690   76.0290 C   0  0  0  0  0  0  0  0  0  0  0  0
    0.7210   63.4300   76.7630 C   0  0  0  0  0  0  0  0  0  0  0  0
    1.1360   62.1640   76.0190 C   0  0  0  0  0  0  0  0  0  0  0  0
    1.5340   62.4610   74.5680 C   0  0  2  0  0  0  0  0  0  0  0  0
    0.3580   63.1550   73.8890 N   0  0  1  0  0  4  0  0  0  0  0  0
   -0.0180   64.4610   74.5840 C   0  0  0  0  0  0  0  0  0  0  0  0
    0.5420   63.3530   72.3970 C   0  0  0  0  0  0  0  0  0  0  0  0
    0.9510   62.0390   71.7000 C   0  0  2  0  0  0  0  0  0  0  0  0
    0.9290   60.8590   72.6740 C   0  0  0  0  0  0  0  0  0  0  0  0
    1.9140   61.1650   73.8020 C   0  0  1  0  0  0  0  0  0  0  0  0
    3.3410   61.2270   73.2200 C   0  0  0  0  0  0  0  0  0  0  0  0
    3.4500   62.2170   72.0670 N   0  0  2  0  0  4  0  0  0  0  0  0
    2.3450   62.0730   71.0200 C   0  0  2  0  0  0  0  0  0  0  0  0
    2.5040   63.1790   69.9720 C   0  0  0  0  0  0  0  0  0  0  0  0
    3.8820   63.1320   69.3180 C   0  0  0  0  0  0  0  0  0  0  0  0
    4.9920   63.1800   70.3610 C   0  0  0  0  0  0  0  0  0  0  0  0
    4.8330   62.0870   71.4070 C   0  0  0  0  0  0  0  0  0  0  0  0
   -1.3000   63.5497   76.0438 H   0  0  0  0  0  0  0  0  0  0  0  0
   -0.5579   65.1290   76.5394 H   0  0  0  0  0  0  0  0  0  0  0  0
    1.5932   64.0942   76.8526 H   0  0  0  0  0  0  0  0  0  0  0  0
    0.3464   63.1401   77.7558 H   0  0  0  0  0  0  0  0  0  0  0  0
    1.9936   61.7110   76.5379 H   0  0  0  0  0  0  0  0  0  0  0  0
    0.2759   61.4785   76.0042 H   0  0  0  0  0  0  0  0  0  0  0  0
    2.4227   63.1092   74.5595 H   0  0  0  0  0  0  0  0  0  0  0  0
   -0.4338   62.5042   73.9912 H   0  0  0  0  0  0  0  0  0  0  0  0
    0.8378   65.1516   74.5573 H   0  0  0  0  0  0  0  0  0  0  0  0
   -0.8730   64.9217   74.0675 H   0  0  0  0  0  0  0  0  0  0  0  0
   -0.4047   63.7080   71.9638 H   0  0  0  0  0  0  0  0  0  0  0  0
    1.3434   64.0904   72.2423 H   0  0  0  0  0  0  0  0  0  0  0  0
    0.1973   61.9141   70.9086 H   0  0  0  0  0  0  0  0  0  0  0  0
   -0.0833   60.7323   73.0854 H   0  0  0  0  0  0  0  0  0  0  0  0
    1.2127   59.9299   72.1580 H   0  0  0  0  0  0  0  0  0  0  0  0
    1.8708   60.3569   74.5470 H   0  0  0  0  0  0  0  0  0  0  0  0
    4.0354   61.5329   74.0164 H   0  0  0  0  0  0  0  0  0  0  0  0
    3.5912   60.2284   72.8324 H   0  0  0  0  0  0  0  0  0  0  0  0
    3.3309   63.1565   72.4720 H   0  0  0  0  0  0  0  0  0  0  0  0
    2.4321   61.1133   70.4896 H   0  0  0  0  0  0  0  0  0  0  0  0
    1.7350   63.0502   69.1961 H   0  0  0  0  0  0  0  0  0  0  0  0
    2.3922   64.1510   70.4746 H   0  0  0  0  0  0  0  0  0  0  0  0
    3.9730   62.2002   68.7406 H   0  0  0  0  0  0  0  0  0  0  0  0
    3.9846   64.0085   68.6613 H   0  0  0  0  0  0  0  0  0  0  0  0
    5.9607   63.0512   69.8560 H   0  0  0  0  0  0  0  0  0  0  0  0
    4.9385   64.1525   70.8723 H   0  0  0  0  0  0  0  0  0  0  0  0
    4.9200   61.1017   70.9258 H   0  0  0  0  0  0  0  0  0  0  0  0
    5.6182   62.1887   72.1706 H   0  0  0  0  0  0  0  0  0  0  0  0
  2  1  1  0
  3  2  1  0
  4  3  1  0
  5  4  1  0
  6  5  1  0
  6  1  1  0
  7  5  1  0
  8  7  1  0
  9  8  1  0
 10  9  1  0
 10  4  1  0
 11 10  1  0
 12 11  1  0
 13 12  1  0
 13  8  1  0
 14 13  1  0
 15 14  1  0
 16 15  1  0
 17 16  1  0
 17 12  1  0
  1 18  1  0
  1 19  1  0
  2 20  1  0
  2 21  1  0
  3 22  1  0
  3 23  1  0
  4 24  1  1
  5 25  1  6
  6 26  1  0
  6 27  1  0
  7 28  1  0
  7 29  1  0
  8 30  1  6
  9 31  1  0
  9 32  1  0
 10 33  1  1
 11 34  1  0
 11 35  1  0
 12 36  1  1
 13 37  1  6
 14 38  1  0
 14 39  1  0
 15 40  1  0
 15 41  1  0
 16 42  1  0
 16 43  1  0
 17 44  1  0
 17 45  1  0
M  CHG  2   5   1  12   1
M  END
>  <score>  (6) 
-6.792

$$$$
=
     RDKit          3D

 45 48  0  0  0  0  0  0  0  0999 V2000
    4.6320   63.2670   70.2690 C   0  0  0  0  0  0  0  0  0  0  0  0
    3.2610   63.8460   70.5940 C   0  0  0  0  0  0  0  0  0  0  0  0
    2.2390   62.7440   70.8620 C   0  0  0  0  0  0  0  0  0  0  0  0
    2.7100   61.7870   71.9650 C   0  0  2  0  0  0  0  0  0  0  0  0
    4.0610   61.2150   71.5470 N   0  0  1  0  0  4  0  0  0  0  0  0
    5.1100   62.3060   71.3470 C   0  0  0  0  0  0  0  0  0  0  0  0
    4.5690   60.1170   72.4600 C   0  0  0  0  0  0  0  0  0  0  0  0
    3.4980   59.0300   72.6860 C   0  0  2  0  0  0  0  0  0  0  0  0
    2.2600   59.2780   71.8220 C   0  0  0  0  0  0  0  0  0  0  0  0
    1.6880   60.6430   72.2040 C   0  0  1  0  0  0  0  0  0  0  0  0
    1.2000   60.5920   73.6660 C   0  0  0  0  0  0  0  0  0  0  0  0
    2.2930   60.1300   74.6220 N   0  0  2  0  0  4  0  0  0  0  0  0
    3.0320   58.8740   74.1580 C   0  0  2  0  0  0  0  0  0  0  0  0
    4.1640   58.5690   75.1440 C   0  0  0  0  0  0  0  0  0  0  0  0
    3.6320   58.3920   76.5630 C   0  0  0  0  0  0  0  0  0  0  0  0
    2.8120   59.6000   77.0020 C   0  0  0  0  0  0  0  0  0  0  0  0
    1.6920   59.9110   76.0200 C   0  0  0  0  0  0  0  0  0  0  0  0
    4.5729   62.7277   69.3121 H   0  0  0  0  0  0  0  0  0  0  0  0
    5.3492   64.0990   70.2106 H   0  0  0  0  0  0  0  0  0  0  0  0
    3.3440   64.4819   71.4877 H   0  0  0  0  0  0  0  0  0  0  0  0
    2.9189   64.4316   69.7280 H   0  0  0  0  0  0  0  0  0  0  0  0
    1.2902   63.2060   71.1725 H   0  0  0  0  0  0  0  0  0  0  0  0
    2.1114   62.1632   69.9366 H   0  0  0  0  0  0  0  0  0  0  0  0
    2.7999   62.3383   72.9126 H   0  0  0  0  0  0  0  0  0  0  0  0
    3.8937   60.7679   70.6343 H   0  0  0  0  0  0  0  0  0  0  0  0
    5.2559   62.8536   72.2898 H   0  0  0  0  0  0  0  0  0  0  0  0
    6.0633   61.8507   71.0404 H   0  0  0  0  0  0  0  0  0  0  0  0
    5.4568   59.6548   72.0038 H   0  0  0  0  0  0  0  0  0  0  0  0
    4.8176   60.5647   73.4335 H   0  0  0  0  0  0  0  0  0  0  0  0
    4.0037   58.0968   72.3970 H   0  0  0  0  0  0  0  0  0  0  0  0
    2.5395   59.2741   70.7581 H   0  0  0  0  0  0  0  0  0  0  0  0
    1.5121   58.4885   71.9875 H   0  0  0  0  0  0  0  0  0  0  0  0
    0.8310   60.8695   71.5527 H   0  0  0  0  0  0  0  0  0  0  0  0
    0.8702   61.5980   73.9646 H   0  0  0  0  0  0  0  0  0  0  0  0
    0.3745   59.8671   73.7213 H   0  0  0  0  0  0  0  0  0  0  0  0
    3.0007   60.8780   74.6463 H   0  0  0  0  0  0  0  0  0  0  0  0
    2.3612   58.0022   74.1598 H   0  0  0  0  0  0  0  0  0  0  0  0
    4.6699   57.6430   74.8331 H   0  0  0  0  0  0  0  0  0  0  0  0
    4.8652   59.4165   75.1398 H   0  0  0  0  0  0  0  0  0  0  0  0
    2.9958   57.4953   76.5979 H   0  0  0  0  0  0  0  0  0  0  0  0
    4.4891   58.2880   77.2446 H   0  0  0  0  0  0  0  0  0  0  0  0
    2.3726   59.3923   77.9888 H   0  0  0  0  0  0  0  0  0  0  0  0
    3.4823   60.4712   77.0426 H   0  0  0  0  0  0  0  0  0  0  0  0
    0.9852   59.0687   75.9890 H   0  0  0  0  0  0  0  0  0  0  0  0
    1.1605   60.8191   76.3406 H   0  0  0  0  0  0  0  0  0  0  0  0
  2  1  1  0
  3  2  1  0
  4  3  1  0
  5  4  1  0
  6  5  1  0
  6  1  1  0
  7  5  1  0
  8  7  1  0
  9  8  1  0
 10  9  1  0
 10  4  1  0
 11 10  1  0
 12 11  1  0
 13 12  1  0
 13  8  1  0
 14 13  1  0
 15 14  1  0
 16 15  1  0
 17 16  1  0
 17 12  1  0
  1 18  1  0
  1 19  1  0
  2 20  1  0
  2 21  1  0
  3 22  1  0
  3 23  1  0
  4 24  1  1
  5 25  1  6
  6 26  1  0
  6 27  1  0
  7 28  1  0
  7 29  1  0
  8 30  1  6
  9 31  1  0
  9 32  1  0
 10 33  1  6
 11 34  1  0
 11 35  1  0
 12 36  1  1
 13 37  1  6
 14 38  1  0
 14 39  1  0
 15 40  1  0
 15 41  1  0
 16 42  1  0
 16 43  1  0
 17 44  1  0
 17 45  1  0
M  CHG  2   5   1  12   1
M  END
>  <score>  (7) 
-6.758

$$$$
=
     RDKit          3D

 45 48  0  0  0  0  0  0  0  0999 V2000
   -1.3820   59.4620   75.2200 C   0  0  0  0  0  0  0  0  0  0  0  0
   -2.1690   59.9530   74.0110 C   0  0  0  0  0  0  0  0  0  0  0  0
   -1.5890   61.2520   73.4580 C   0  0  0  0  0  0  0  0  0  0  0  0
   -0.0980   61.1160   73.1280 C   0  0  2  0  0  0  0  0  0  0  0  0
    0.6260   60.6680   74.3940 N   0  0  1  0  0  4  0  0  0  0  0  0
    0.1020   59.3320   74.9140 C   0  0  0  0  0  0  0  0  0  0  0  0
    2.1360   60.6600   74.2650 C   0  0  0  0  0  0  0  0  0  0  0  0
    2.6630   62.0010   73.7110 C   0  0  2  0  0  0  0  0  0  0  0  0
    1.5370   63.0270   73.5690 C   0  0  0  0  0  0  0  0  0  0  0  0
    0.4970   62.4510   72.6070 C   0  0  1  0  0  0  0  0  0  0  0  0
    1.1340   62.3030   71.2100 C   0  0  0  0  0  0  0  0  0  0  0  0
    2.4140   61.4770   71.2470 N   0  0  2  0  0  4  0  0  0  0  0  0
    3.3920   61.8960   72.3450 C   0  0  2  0  0  0  0  0  0  0  0  0
    4.5850   60.9360   72.3440 C   0  0  0  0  0  0  0  0  0  0  0  0
    5.2770   60.9110   70.9840 C   0  0  0  0  0  0  0  0  0  0  0  0
    4.2910   60.5860   69.8680 C   0  0  0  0  0  0  0  0  0  0  0  0
    3.1000   61.5330   69.8720 C   0  0  0  0  0  0  0  0  0  0  0  0
   -1.5139   60.1775   76.0450 H   0  0  0  0  0  0  0  0  0  0  0  0
   -1.7627   58.4671   75.4943 H   0  0  0  0  0  0  0  0  0  0  0  0
   -2.1355   59.1834   73.2257 H   0  0  0  0  0  0  0  0  0  0  0  0
   -3.2052   60.1439   74.3271 H   0  0  0  0  0  0  0  0  0  0  0  0
   -2.1331   61.5228   72.5412 H   0  0  0  0  0  0  0  0  0  0  0  0
   -1.6987   62.0300   74.2279 H   0  0  0  0  0  0  0  0  0  0  0  0
    0.0315   60.3747   72.3257 H   0  0  0  0  0  0  0  0  0  0  0  0
    0.4072   61.3874   75.0979 H   0  0  0  0  0  0  0  0  0  0  0  0
    0.2535   58.5550   74.1503 H   0  0  0  0  0  0  0  0  0  0  0  0
    0.6450   59.0529   75.8290 H   0  0  0  0  0  0  0  0  0  0  0  0
    2.5786   60.4841   75.2565 H   0  0  0  0  0  0  0  0  0  0  0  0
    2.4184   59.8615   73.5632 H   0  0  0  0  0  0  0  0  0  0  0  0
    3.4025   62.3244   74.4584 H   0  0  0  0  0  0  0  0  0  0  0  0
    1.0759   63.2144   74.5499 H   0  0  0  0  0  0  0  0  0  0  0  0
    1.9313   63.9787   73.1831 H   0  0  0  0  0  0  0  0  0  0  0  0
   -0.3531   63.1455   72.5362 H   0  0  0  0  0  0  0  0  0  0  0  0
    0.4128   61.8094   70.5420 H   0  0  0  0  0  0  0  0  0  0  0  0
    1.3911   63.3091   70.8472 H   0  0  0  0  0  0  0  0  0  0  0  0
    2.1357   60.5116   71.4739 H   0  0  0  0  0  0  0  0  0  0  0  0
    3.7909   62.9024   72.1501 H   0  0  0  0  0  0  0  0  0  0  0  0
    5.3071   61.2614   73.1073 H   0  0  0  0  0  0  0  0  0  0  0  0
    4.2154   59.9235   72.5636 H   0  0  0  0  0  0  0  0  0  0  0  0
    5.7244   61.8972   70.7912 H   0  0  0  0  0  0  0  0  0  0  0  0
    6.0513   60.1299   71.0022 H   0  0  0  0  0  0  0  0  0  0  0  0
    4.8083   60.6687   68.9007 H   0  0  0  0  0  0  0  0  0  0  0  0
    3.9160   59.5647   70.0301 H   0  0  0  0  0  0  0  0  0  0  0  0
    3.4449   62.5587   69.6744 H   0  0  0  0  0  0  0  0  0  0  0  0
    2.3865   61.2326   69.0906 H   0  0  0  0  0  0  0  0  0  0  0  0
  2  1  1  0
  3  2  1  0
  4  3  1  0
  5  4  1  0
  6  5  1  0
  6  1  1  0
  7  5  1  0
  8  7  1  0
  9  8  1  0
 10  9  1  0
 10  4  1  0
 11 10  1  0
 12 11  1  0
 13 12  1  0
 13  8  1  0
 14 13  1  0
 15 14  1  0
 16 15  1  0
 17 16  1  0
 17 12  1  0
  1 18  1  0
  1 19  1  0
  2 20  1  0
  2 21  1  0
  3 22  1  0
  3 23  1  0
  4 24  1  6
  5 25  1  1
  6 26  1  0
  6 27  1  0
  7 28  1  0
  7 29  1  0
  8 30  1  1
  9 31  1  0
  9 32  1  0
 10 33  1  6
 11 34  1  0
 11 35  1  0
 12 36  1  1
 13 37  1  6
 14 38  1  0
 14 39  1  0
 15 40  1  0
 15 41  1  0
 16 42  1  0
 16 43  1  0
 17 44  1  0
 17 45  1  0
M  CHG  2   5   1  12   1
M  END
>  <score>  (8) 
-6.707

$$$$
=
     RDKit          3D

 45 48  0  0  0  0  0  0  0  0999 V2000
    0.3970   64.5380   71.8630 C   0  0  0  0  0  0  0  0  0  0  0  0
    0.5310   63.9400   70.4680 C   0  0  0  0  0  0  0  0  0  0  0  0
    1.8050   63.1100   70.3360 C   0  0  0  0  0  0  0  0  0  0  0  0
    1.8900   62.0220   71.4130 C   0  0  2  0  0  0  0  0  0  0  0  0
    1.7960   62.7000   72.7770 N   0  0  1  0  0  4  0  0  0  0  0  0
    0.4910   63.4740   72.9460 C   0  0  0  0  0  0  0  0  0  0  0  0
    2.0420   61.7650   73.9440 C   0  0  0  0  0  0  0  0  0  0  0  0
    3.3470   60.9610   73.7580 C   0  0  2  0  0  0  0  0  0  0  0  0
    4.1130   61.4200   72.5160 C   0  0  0  0  0  0  0  0  0  0  0  0
    3.2070   61.2090   71.3020 C   0  0  1  0  0  0  0  0  0  0  0  0
    2.9490   59.6990   71.1260 C   0  0  0  0  0  0  0  0  0  0  0  0
    2.3880   59.0590   72.3900 N   0  0  2  0  0  4  0  0  0  0  0  0
    3.1530   59.4250   73.6620 C   0  0  2  0  0  0  0  0  0  0  0  0
    2.4400   58.8070   74.8690 C   0  0  0  0  0  0  0  0  0  0  0  0
    2.3170   57.2930   74.7260 C   0  0  0  0  0  0  0  0  0  0  0  0
    1.6390   56.9130   73.4150 C   0  0  0  0  0  0  0  0  0  0  0  0
    2.3410   57.5320   72.2150 C   0  0  0  0  0  0  0  0  0  0  0  0
    1.2021   65.2721   72.0144 H   0  0  0  0  0  0  0  0  0  0  0  0
   -0.5918   65.0142   71.9369 H   0  0  0  0  0  0  0  0  0  0  0  0
   -0.3380   63.2951   70.2704 H   0  0  0  0  0  0  0  0  0  0  0  0
    0.5793   64.7648   69.7418 H   0  0  0  0  0  0  0  0  0  0  0  0
    1.8175   62.6321   69.3453 H   0  0  0  0  0  0  0  0  0  0  0  0
    2.6660   63.7830   70.4612 H   0  0  0  0  0  0  0  0  0  0  0  0
    1.0627   61.3098   71.2775 H   0  0  0  0  0  0  0  0  0  0  0  0
    2.5697   63.3797   72.7930 H   0  0  0  0  0  0  0  0  0  0  0  0
   -0.3605   62.7832   72.8581 H   0  0  0  0  0  0  0  0  0  0  0  0
    0.4703   63.9519   73.9365 H   0  0  0  0  0  0  0  0  0  0  0  0
    2.1156   62.3577   74.8678 H   0  0  0  0  0  0  0  0  0  0  0  0
    1.2037   61.0550   74.0007 H   0  0  0  0  0  0  0  0  0  0  0  0
    3.9185   61.1673   74.6750 H   0  0  0  0  0  0  0  0  0  0  0  0
    4.3720   62.4850   72.6087 H   0  0  0  0  0  0  0  0  0  0  0  0
    5.0439   60.8445   72.4048 H   0  0  0  0  0  0  0  0  0  0  0  0
    3.7142   61.5889   70.4029 H   0  0  0  0  0  0  0  0  0  0  0  0
    2.2288   59.5559   70.3070 H   0  0  0  0  0  0  0  0  0  0  0  0
    3.9116   59.2161   70.9020 H   0  0  0  0  0  0  0  0  0  0  0  0
    1.4383   59.4371   72.5161 H   0  0  0  0  0  0  0  0  0  0  0  0
    4.1694   59.0050   73.6406 H   0  0  0  0  0  0  0  0  0  0  0  0
    3.0137   59.0353   75.7794 H   0  0  0  0  0  0  0  0  0  0  0  0
    1.4276   59.2330   74.9293 H   0  0  0  0  0  0  0  0  0  0  0  0
    3.3226   56.8480   74.7513 H   0  0  0  0  0  0  0  0  0  0  0  0
    1.7027   56.9150   75.5565 H   0  0  0  0  0  0  0  0  0  0  0  0
    1.6543   55.8181   73.3106 H   0  0  0  0  0  0  0  0  0  0  0  0
    0.6072   57.2935   73.4410 H   0  0  0  0  0  0  0  0  0  0  0  0
    3.3656   57.1379   72.1443 H   0  0  0  0  0  0  0  0  0  0  0  0
    1.7916   57.2818   71.2954 H   0  0  0  0  0  0  0  0  0  0  0  0
  2  1  1  0
  3  2  1  0
  4  3  1  0
  5  4  1  0
  6  5  1  0
  6  1  1  0
  7  5  1  0
  8  7  1  0
  9  8  1  0
 10  9  1  0
 10  4  1  0
 11 10  1  0
 12 11  1  0
 13 12  1  0
 13  8  1  0
 14 13  1  0
 15 14  1  0
 16 15  1  0
 17 16  1  0
 17 12  1  0
  1 18  1  0
  1 19  1  0
  2 20  1  0
  2 21  1  0
  3 22  1  0
  3 23  1  0
  4 24  1  6
  5 25  1  6
  6 26  1  0
  6 27  1  0
  7 28  1  0
  7 29  1  0
  8 30  1  1
  9 31  1  0
  9 32  1  0
 10 33  1  6
 11 34  1  0
 11 35  1  0
 12 36  1  1
 13 37  1  6
 14 38  1  0
 14 39  1  0
 15 40  1  0
 15 41  1  0
 16 42  1  0
 16 43  1  0
 17 44  1  0
 17 45  1  0
M  CHG  2   5   1  12   1
M  END
>  <score>  (9) 
-6.703

$$$$
