=
     RDKit          3D

 48 50  0  0  0  0  0  0  0  0999 V2000
    0.1330   66.4950   69.8060 C   0  0  0  0  0  0  0  0  0  0  0  0
    1.4180   67.2960   69.5440 C   0  0  0  0  0  0  0  0  0  0  0  0
    1.8390   67.2170   68.0840 C   0  0  0  0  0  0  0  0  0  0  0  0
    0.7720   67.8370   67.1990 N   0  0  0  0  0  4  0  0  0  0  0  0
   -0.6370   67.7440   67.7480 C   0  0  0  0  0  0  0  0  0  0  0  0
   -0.7970   66.4840   68.5770 C   0  0  0  0  0  0  0  0  0  0  0  0
    0.4500   65.0590   70.2590 C   0  0  0  0  0  0  0  0  0  0  0  0
    1.8660   64.9240   70.3870 O   0  0  0  0  0  0  0  0  0  0  0  0
    3.0830   61.0280   69.8980 C   0  0  0  0  0  0  0  0  0  0  0  0
    2.3150   61.3750   71.0080 C   0  0  0  0  0  0  0  0  0  0  0  0
    1.9130   62.7010   71.1620 C   0  0  0  0  0  0  0  0  0  0  0  0
    2.2970   63.6250   70.2000 C   0  0  0  0  0  0  0  0  0  0  0  0
    3.0340   63.3170   69.1110 N   0  0  0  0  0  0  0  0  0  0  0  0
    3.4150   62.0200   68.9860 C   0  0  0  0  0  0  0  0  0  0  0  0
    3.3520   58.7410   70.6270 N   0  0  0  0  0  0  0  0  0  0  0  0
    3.5210   59.6390   69.7090 C   0  0  0  0  0  0  0  0  0  0  0  0
    3.8670   57.5270   70.1630 O   0  0  0  0  0  0  0  0  0  0  0  0
    0.8670   67.3560   65.7620 C   0  0  0  0  0  0  0  0  0  0  0  0
    2.2070   67.6350   65.1370 C   0  0  0  0  0  0  0  0  0  0  0  0
    2.9850   66.5880   64.6220 C   0  0  0  0  0  0  0  0  0  0  0  0
    4.2420   66.8470   64.0720 C   0  0  0  0  0  0  0  0  0  0  0  0
    4.7320   68.1510   64.0330 C   0  0  0  0  0  0  0  0  0  0  0  0
    3.9660   69.1990   64.5370 C   0  0  0  0  0  0  0  0  0  0  0  0
    2.7090   68.9460   65.0870 C   0  0  0  0  0  0  0  0  0  0  0  0
   -0.3995   67.0035   70.6232 H   0  0  0  0  0  0  0  0  0  0  0  0
    1.2424   68.3492   69.8085 H   0  0  0  0  0  0  0  0  0  0  0  0
    2.2229   66.8659   70.1581 H   0  0  0  0  0  0  0  0  0  0  0  0
    2.7854   67.7609   67.9483 H   0  0  0  0  0  0  0  0  0  0  0  0
    1.9705   66.1614   67.8038 H   0  0  0  0  0  0  0  0  0  0  0  0
    0.9833   68.8451   67.2006 H   0  0  0  0  0  0  0  0  0  0  0  0
   -0.8391   68.6218   68.3793 H   0  0  0  0  0  0  0  0  0  0  0  0
   -1.3468   67.7123   66.9082 H   0  0  0  0  0  0  0  0  0  0  0  0
   -1.8400   66.4109   68.9186 H   0  0  0  0  0  0  0  0  0  0  0  0
   -0.5293   65.6213   67.9492 H   0  0  0  0  0  0  0  0  0  0  0  0
   -0.0303   64.8617   71.2288 H   0  0  0  0  0  0  0  0  0  0  0  0
    0.0690   64.3389   69.5199 H   0  0  0  0  0  0  0  0  0  0  0  0
    2.0306   60.6149   71.7506 H   0  0  0  0  0  0  0  0  0  0  0  0
    1.3054   63.0080   72.0261 H   0  0  0  0  0  0  0  0  0  0  0  0
    4.0213   61.7394   68.1122 H   0  0  0  0  0  0  0  0  0  0  0  0
    4.0051   59.3539   68.7633 H   0  0  0  0  0  0  0  0  0  0  0  0
    3.8251   56.7204   70.7355 H   0  0  0  0  0  0  0  0  0  0  0  0
    0.6904   66.2704   65.7431 H   0  0  0  0  0  0  0  0  0  0  0  0
    0.1115   67.9046   65.1803 H   0  0  0  0  0  0  0  0  0  0  0  0
    2.6028   65.5569   64.6515 H   0  0  0  0  0  0  0  0  0  0  0  0
    4.8462   66.0208   63.6690 H   0  0  0  0  0  0  0  0  0  0  0  0
    5.7245   68.3526   63.6038 H   0  0  0  0  0  0  0  0  0  0  0  0
    4.3527   70.2282   64.5014 H   0  0  0  0  0  0  0  0  0  0  0  0
    2.1079   69.7775   65.4836 H   0  0  0  0  0  0  0  0  0  0  0  0
  2  1  1  0
  3  2  1  0
  4  3  1  0
  5  4  1  0
  6  5  1  0
  6  1  1  0
  7  1  1  0
  8  7  1  0
 10  9  2  0
 11 10  1  0
 12  8  1  0
 12 11  2  0
 13 12  1  0
 14 13  2  0
 14  9  1  0
 16 15  2  0
 16  9  1  0
 17 15  1  0
 18  4  1  0
 19 18  1  0
 20 19  2  0
 21 20  1  0
 22 21  2  0
 23 22  1  0
 24 23  2  0
 24 19  1  0
  1 25  1  0
  2 26  1  0
  2 27  1  0
  3 28  1  0
  3 29  1  0
  4 30  1  0
  5 31  1  0
  5 32  1  0
  6 33  1  0
  6 34  1  0
  7 35  1  0
  7 36  1  0
 10 37  1  0
 11 38  1  0
 14 39  1  0
 16 40  1  0
 17 41  1  0
 18 42  1  0
 18 43  1  0
 20 44  1  0
 21 45  1  0
 22 46  1  0
 23 47  1  0
 24 48  1  0
M  CHG  1   4   1
M  END
>  <score>  (1) 
-8.67

$$$$
=
     RDKit          3D

 48 50  0  0  0  0  0  0  0  0999 V2000
    1.6200   61.2470   74.3920 C   0  0  0  0  0  0  0  0  0  0  0  0
    0.8270   60.4790   73.3230 C   0  0  0  0  0  0  0  0  0  0  0  0
    1.6860   60.1620   72.1080 C   0  0  0  0  0  0  0  0  0  0  0  0
    2.8380   59.2560   72.5060 N   0  0  0  0  0  4  0  0  0  0  0  0
    3.3060   59.4200   73.9370 C   0  0  0  0  0  0  0  0  0  0  0  0
    3.1100   60.8530   74.3940 C   0  0  0  0  0  0  0  0  0  0  0  0
    1.4610   62.7680   74.2230 C   0  0  0  0  0  0  0  0  0  0  0  0
    0.2340   63.0240   73.5380 O   0  0  0  0  0  0  0  0  0  0  0  0
    0.6710   65.7890   70.5270 C   0  0  0  0  0  0  0  0  0  0  0  0
    1.3830   64.5920   70.4710 C   0  0  0  0  0  0  0  0  0  0  0  0
    1.2270   63.6660   71.5010 C   0  0  0  0  0  0  0  0  0  0  0  0
    0.3670   63.9760   72.5460 C   0  0  0  0  0  0  0  0  0  0  0  0
   -0.3420   65.1230   72.6230 N   0  0  0  0  0  0  0  0  0  0  0  0
   -0.1700   66.0090   71.6090 C   0  0  0  0  0  0  0  0  0  0  0  0
    0.0840   66.7450   68.3880 N   0  0  0  0  0  0  0  0  0  0  0  0
    0.8150   66.7830   69.4560 C   0  0  0  0  0  0  0  0  0  0  0  0
    0.4500   67.8110   67.5590 O   0  0  0  0  0  0  0  0  0  0  0  0
    3.9830   59.3110   71.5110 C   0  0  0  0  0  0  0  0  0  0  0  0
    4.0810   60.6350   70.8030 C   0  0  0  0  0  0  0  0  0  0  0  0
    3.4790   60.8190   69.5490 C   0  0  0  0  0  0  0  0  0  0  0  0
    3.6000   62.0380   68.8790 C   0  0  0  0  0  0  0  0  0  0  0  0
    4.3220   63.0820   69.4540 C   0  0  0  0  0  0  0  0  0  0  0  0
    4.9200   62.9120   70.7000 C   0  0  0  0  0  0  0  0  0  0  0  0
    4.8020   61.6960   71.3740 C   0  0  0  0  0  0  0  0  0  0  0  0
    1.1985   60.9641   75.3678 H   0  0  0  0  0  0  0  0  0  0  0  0
    0.4619   59.5368   73.7577 H   0  0  0  0  0  0  0  0  0  0  0  0
   -0.0113   61.1117   72.9959 H   0  0  0  0  0  0  0  0  0  0  0  0
    1.0707   59.6563   71.3492 H   0  0  0  0  0  0  0  0  0  0  0  0
    2.0900   61.0994   71.6980 H   0  0  0  0  0  0  0  0  0  0  0  0
    2.4465   58.3040   72.4709 H   0  0  0  0  0  0  0  0  0  0  0  0
    2.7259   58.7491   74.5877 H   0  0  0  0  0  0  0  0  0  0  0  0
    4.3755   59.1691   73.9947 H   0  0  0  0  0  0  0  0  0  0  0  0
    3.5069   60.9604   75.4143 H   0  0  0  0  0  0  0  0  0  0  0  0
    3.6431   61.5144   73.6952 H   0  0  0  0  0  0  0  0  0  0  0  0
    1.4416   63.2508   75.2112 H   0  0  0  0  0  0  0  0  0  0  0  0
    2.3055   63.1725   73.6457 H   0  0  0  0  0  0  0  0  0  0  0  0
    2.0571   64.3816   69.6276 H   0  0  0  0  0  0  0  0  0  0  0  0
    1.7729   62.7111   71.4863 H   0  0  0  0  0  0  0  0  0  0  0  0
   -0.7292   66.9555   71.6470 H   0  0  0  0  0  0  0  0  0  0  0  0
    1.5640   67.5814   69.5639 H   0  0  0  0  0  0  0  0  0  0  0  0
   -0.0066   67.9420   66.6904 H   0  0  0  0  0  0  0  0  0  0  0  0
    4.9250   59.1306   72.0497 H   0  0  0  0  0  0  0  0  0  0  0  0
    3.7939   58.5419   70.7476 H   0  0  0  0  0  0  0  0  0  0  0  0
    2.9082   59.9978   69.0909 H   0  0  0  0  0  0  0  0  0  0  0  0
    3.1249   62.1744   67.8963 H   0  0  0  0  0  0  0  0  0  0  0  0
    4.4196   64.0407   68.9235 H   0  0  0  0  0  0  0  0  0  0  0  0
    5.4867   63.7383   71.1540 H   0  0  0  0  0  0  0  0  0  0  0  0
    5.2764   61.5678   72.3581 H   0  0  0  0  0  0  0  0  0  0  0  0
  2  1  1  0
  3  2  1  0
  4  3  1  0
  5  4  1  0
  6  5  1  0
  6  1  1  0
  7  1  1  0
  8  7  1  0
 10  9  2  0
 11 10  1  0
 12  8  1  0
 12 11  2  0
 13 12  1  0
 14 13  2  0
 14  9  1  0
 16 15  2  0
 16  9  1  0
 17 15  1  0
 18  4  1  0
 19 18  1  0
 20 19  2  0
 21 20  1  0
 22 21  2  0
 23 22  1  0
 24 23  2  0
 24 19  1  0
  1 25  1  0
  2 26  1  0
  2 27  1  0
  3 28  1  0
  3 29  1  0
  4 30  1  0
  5 31  1  0
  5 32  1  0
  6 33  1  0
  6 34  1  0
  7 35  1  0
  7 36  1  0
 10 37  1  0
 11 38  1  0
 14 39  1  0
 16 40  1  0
 17 41  1  0
 18 42  1  0
 18 43  1  0
 20 44  1  0
 21 45  1  0
 22 46  1  0
 23 47  1  0
 24 48  1  0
M  CHG  1   4   1
M  END
>  <score>  (2) 
-8.621

$$$$
=
     RDKit          3D

 48 50  0  0  0  0  0  0  0  0999 V2000
   -0.3080   67.6850   68.2180 C   0  0  0  0  0  0  0  0  0  0  0  0
    1.1360   68.2120   68.2300 C   0  0  0  0  0  0  0  0  0  0  0  0
    1.8830   67.8290   66.9610 C   0  0  0  0  0  0  0  0  0  0  0  0
    1.2160   68.4630   65.7520 N   0  0  0  0  0  4  0  0  0  0  0  0
   -0.2730   68.6920   65.9000 C   0  0  0  0  0  0  0  0  0  0  0  0
   -0.8850   67.6270   66.7900 C   0  0  0  0  0  0  0  0  0  0  0  0
   -0.4080   66.3100   68.9000 C   0  0  0  0  0  0  0  0  0  0  0  0
    0.1330   66.4140   70.2180 O   0  0  0  0  0  0  0  0  0  0  0  0
    2.2420   63.0740   71.3530 C   0  0  0  0  0  0  0  0  0  0  0  0
    1.0760   63.4160   72.0350 C   0  0  0  0  0  0  0  0  0  0  0  0
    0.3740   64.5540   71.6410 C   0  0  0  0  0  0  0  0  0  0  0  0
    0.8680   65.3030   70.5820 C   0  0  0  0  0  0  0  0  0  0  0  0
    1.9890   64.9920   69.8980 N   0  0  0  0  0  0  0  0  0  0  0  0
    2.6570   63.8810   70.3030 C   0  0  0  0  0  0  0  0  0  0  0  0
    4.2450   61.7240   71.4140 N   0  0  0  0  0  0  0  0  0  0  0  0
    3.0030   61.8810   71.7460 C   0  0  0  0  0  0  0  0  0  0  0  0
    4.6930   60.5030   71.9260 O   0  0  0  0  0  0  0  0  0  0  0  0
    1.5670   67.7450   64.4610 C   0  0  0  0  0  0  0  0  0  0  0  0
    2.7980   68.3010   63.7970 C   0  0  0  0  0  0  0  0  0  0  0  0
    2.9390   68.2510   62.4020 C   0  0  0  0  0  0  0  0  0  0  0  0
    4.0960   68.7370   61.7910 C   0  0  0  0  0  0  0  0  0  0  0  0
    5.1210   69.2750   62.5660 C   0  0  0  0  0  0  0  0  0  0  0  0
    4.9910   69.3340   63.9510 C   0  0  0  0  0  0  0  0  0  0  0  0
    3.8360   68.8500   64.5670 C   0  0  0  0  0  0  0  0  0  0  0  0
   -0.9144   68.3991   68.7945 H   0  0  0  0  0  0  0  0  0  0  0  0
    1.1150   69.3085   68.3146 H   0  0  0  0  0  0  0  0  0  0  0  0
    1.6593   67.7616   69.0863 H   0  0  0  0  0  0  0  0  0  0  0  0
    2.9225   68.1820   67.0300 H   0  0  0  0  0  0  0  0  0  0  0  0
    1.8663   66.7348   66.8493 H   0  0  0  0  0  0  0  0  0  0  0  0
    1.6177   69.4098   65.6966 H   0  0  0  0  0  0  0  0  0  0  0  0
   -0.4449   69.6817   66.3482 H   0  0  0  0  0  0  0  0  0  0  0  0
   -0.7428   68.6406   64.9067 H   0  0  0  0  0  0  0  0  0  0  0  0
   -1.9729   67.7825   66.8374 H   0  0  0  0  0  0  0  0  0  0  0  0
   -0.6488   66.6416   66.3619 H   0  0  0  0  0  0  0  0  0  0  0  0
   -1.4619   65.9998   68.9555 H   0  0  0  0  0  0  0  0  0  0  0  0
    0.1539   65.5620   68.3213 H   0  0  0  0  0  0  0  0  0  0  0  0
    0.7154   62.7981   72.8706 H   0  0  0  0  0  0  0  0  0  0  0  0
   -0.5504   64.8517   72.1576 H   0  0  0  0  0  0  0  0  0  0  0  0
    3.5784   63.6055   69.7690 H   0  0  0  0  0  0  0  0  0  0  0  0
    2.5046   61.0996   72.3384 H   0  0  0  0  0  0  0  0  0  0  0  0
    5.6267   60.2133   71.7696 H   0  0  0  0  0  0  0  0  0  0  0  0
    1.7395   66.6822   64.6863 H   0  0  0  0  0  0  0  0  0  0  0  0
    0.7257   67.8852   63.7664 H   0  0  0  0  0  0  0  0  0  0  0  0
    2.1327   67.8262   61.7860 H   0  0  0  0  0  0  0  0  0  0  0  0
    4.1986   68.6952   60.6966 H   0  0  0  0  0  0  0  0  0  0  0  0
    6.0340   69.6536   62.0832 H   0  0  0  0  0  0  0  0  0  0  0  0
    5.8000   69.7628   64.5607 H   0  0  0  0  0  0  0  0  0  0  0  0
    3.7383   68.8989   65.6616 H   0  0  0  0  0  0  0  0  0  0  0  0
  2  1  1  0
  3  2  1  0
  4  3  1  0
  5  4  1  0
  6  5  1  0
  6  1  1  0
  7  1  1  0
  8  7  1  0
 10  9  2  0
 11 10  1  0
 12  8  1  0
 12 11  2  0
 13 12  1  0
 14 13  2  0
 14  9  1  0
 16 15  2  0
 16  9  1  0
 17 15  1  0
 18  4  1  0
 19 18  1  0
 20 19  2  0
 21 20  1  0
 22 21  2  0
 23 22  1  0
 24 23  2  0
 24 19  1  0
  1 25  1  0
  2 26  1  0
  2 27  1  0
  3 28  1  0
  3 29  1  0
  4 30  1  0
  5 31  1  0
  5 32  1  0
  6 33  1  0
  6 34  1  0
  7 35  1  0
  7 36  1  0
 10 37  1  0
 11 38  1  0
 14 39  1  0
 16 40  1  0
 17 41  1  0
 18 42  1  0
 18 43  1  0
 20 44  1  0
 21 45  1  0
 22 46  1  0
 23 47  1  0
 24 48  1  0
M  CHG  1   4   1
M  END
>  <score>  (3) 
-8.313

$$$$
=
     RDKit          3D

 48 50  0  0  0  0  0  0  0  0999 V2000
   -0.1130   67.8520   67.4630 C   0  0  0  0  0  0  0  0  0  0  0  0
    0.3480   69.2690   67.8360 C   0  0  0  0  0  0  0  0  0  0  0  0
    1.8470   69.4420   67.6360 C   0  0  0  0  0  0  0  0  0  0  0  0
    2.2010   69.2590   66.1710 N   0  0  0  0  0  4  0  0  0  0  0  0
    1.2800   68.3290   65.4090 C   0  0  0  0  0  0  0  0  0  0  0  0
    0.7410   67.2510   66.3300 C   0  0  0  0  0  0  0  0  0  0  0  0
   -0.1180   66.9230   68.6900 C   0  0  0  0  0  0  0  0  0  0  0  0
    1.2310   66.5740   69.0020 O   0  0  0  0  0  0  0  0  0  0  0  0
    1.3970   63.3800   71.5840 C   0  0  0  0  0  0  0  0  0  0  0  0
    0.3890   64.3310   71.7310 C   0  0  0  0  0  0  0  0  0  0  0  0
    0.3480   65.4110   70.8500 C   0  0  0  0  0  0  0  0  0  0  0  0
    1.3180   65.4940   69.8600 C   0  0  0  0  0  0  0  0  0  0  0  0
    2.3000   64.5840   69.6880 N   0  0  0  0  0  0  0  0  0  0  0  0
    2.3200   63.5450   70.5610 C   0  0  0  0  0  0  0  0  0  0  0  0
    1.3800   61.0130   72.0680 N   0  0  0  0  0  0  0  0  0  0  0  0
    1.4650   62.2320   72.4980 C   0  0  0  0  0  0  0  0  0  0  0  0
    1.4760   60.1470   73.1620 O   0  0  0  0  0  0  0  0  0  0  0  0
    3.6660   68.9140   65.9730 C   0  0  0  0  0  0  0  0  0  0  0  0
    4.5840   69.7330   66.8400 C   0  0  0  0  0  0  0  0  0  0  0  0
    5.8920   70.0200   66.4210 C   0  0  0  0  0  0  0  0  0  0  0  0
    6.7520   70.7510   67.2420 C   0  0  0  0  0  0  0  0  0  0  0  0
    6.3150   71.2010   68.4860 C   0  0  0  0  0  0  0  0  0  0  0  0
    5.0170   70.9250   68.9110 C   0  0  0  0  0  0  0  0  0  0  0  0
    4.1530   70.1950   68.0940 C   0  0  0  0  0  0  0  0  0  0  0  0
   -1.1454   67.9384   67.0933 H   0  0  0  0  0  0  0  0  0  0  0  0
   -0.1827   69.9952   67.2027 H   0  0  0  0  0  0  0  0  0  0  0  0
    0.1216   69.4354   68.8995 H   0  0  0  0  0  0  0  0  0  0  0  0
    2.1433   70.4509   67.9589 H   0  0  0  0  0  0  0  0  0  0  0  0
    2.3799   68.6872   68.2328 H   0  0  0  0  0  0  0  0  0  0  0  0
    2.0422   70.1836   65.7459 H   0  0  0  0  0  0  0  0  0  0  0  0
    0.4401   68.9075   64.9969 H   0  0  0  0  0  0  0  0  0  0  0  0
    1.8458   67.8535   64.5942 H   0  0  0  0  0  0  0  0  0  0  0  0
    0.1202   66.5575   65.7438 H   0  0  0  0  0  0  0  0  0  0  0  0
    1.5945   66.7251   66.7827 H   0  0  0  0  0  0  0  0  0  0  0  0
   -0.5741   67.4419   69.5460 H   0  0  0  0  0  0  0  0  0  0  0  0
   -0.7004   66.0156   68.4723 H   0  0  0  0  0  0  0  0  0  0  0  0
   -0.3618   64.2313   72.5287 H   0  0  0  0  0  0  0  0  0  0  0  0
   -0.4344   66.1792   70.9372 H   0  0  0  0  0  0  0  0  0  0  0  0
    3.1131   62.7907   70.4514 H   0  0  0  0  0  0  0  0  0  0  0  0
    1.5914   62.4122   73.5758 H   0  0  0  0  0  0  0  0  0  0  0  0
    1.4309   59.1678   73.0236 H   0  0  0  0  0  0  0  0  0  0  0  0
    3.8117   67.8507   66.2142 H   0  0  0  0  0  0  0  0  0  0  0  0
    3.9180   69.1349   64.9253 H   0  0  0  0  0  0  0  0  0  0  0  0
    6.2417   69.6668   65.4397 H   0  0  0  0  0  0  0  0  0  0  0  0
    7.7760   70.9721   66.9065 H   0  0  0  0  0  0  0  0  0  0  0  0
    6.9950   71.7745   69.1331 H   0  0  0  0  0  0  0  0  0  0  0  0
    4.6728   71.2833   69.8924 H   0  0  0  0  0  0  0  0  0  0  0  0
    3.1291   69.9803   68.4340 H   0  0  0  0  0  0  0  0  0  0  0  0
  2  1  1  0
  3  2  1  0
  4  3  1  0
  5  4  1  0
  6  5  1  0
  6  1  1  0
  7  1  1  0
  8  7  1  0
 10  9  2  0
 11 10  1  0
 12  8  1  0
 12 11  2  0
 13 12  1  0
 14 13  2  0
 14  9  1  0
 16 15  2  0
 16  9  1  0
 17 15  1  0
 18  4  1  0
 19 18  1  0
 20 19  2  0
 21 20  1  0
 22 21  2  0
 23 22  1  0
 24 23  2  0
 24 19  1  0
  1 25  1  0
  2 26  1  0
  2 27  1  0
  3 28  1  0
  3 29  1  0
  4 30  1  0
  5 31  1  0
  5 32  1  0
  6 33  1  0
  6 34  1  0
  7 35  1  0
  7 36  1  0
 10 37  1  0
 11 38  1  0
 14 39  1  0
 16 40  1  0
 17 41  1  0
 18 42  1  0
 18 43  1  0
 20 44  1  0
 21 45  1  0
 22 46  1  0
 23 47  1  0
 24 48  1  0
M  CHG  1   4   1
M  END
>  <score>  (4) 
-8.238

$$$$
=
     RDKit          3D

 48 50  0  0  0  0  0  0  0  0999 V2000
    0.1550   63.6410   72.3700 C   0  0  0  0  0  0  0  0  0  0  0  0
   -0.4900   62.2460   72.3490 C   0  0  0  0  0  0  0  0  0  0  0  0
    0.5590   61.1430   72.3690 C   0  0  0  0  0  0  0  0  0  0  0  0
    1.3630   61.2120   73.6540 N   0  0  0  0  0  4  0  0  0  0  0  0
    1.4880   62.6000   74.2490 C   0  0  0  0  0  0  0  0  0  0  0  0
    1.4840   63.6460   73.1510 C   0  0  0  0  0  0  0  0  0  0  0  0
    0.3590   64.1860   70.9460 C   0  0  0  0  0  0  0  0  0  0  0  0
    0.6700   65.5770   71.0320 O   0  0  0  0  0  0  0  0  0  0  0  0
    0.0060   67.6170   67.5260 C   0  0  0  0  0  0  0  0  0  0  0  0
    1.1680   67.8630   68.2550 C   0  0  0  0  0  0  0  0  0  0  0  0
    1.3780   67.1660   69.4440 C   0  0  0  0  0  0  0  0  0  0  0  0
    0.4150   66.2540   69.8550 C   0  0  0  0  0  0  0  0  0  0  0  0
   -0.7160   65.9900   69.1660 N   0  0  0  0  0  0  0  0  0  0  0  0
   -0.8970   66.6840   68.0130 C   0  0  0  0  0  0  0  0  0  0  0  0
   -1.3730   68.2500   65.6460 N   0  0  0  0  0  0  0  0  0  0  0  0
   -0.2410   68.3370   66.2690 C   0  0  0  0  0  0  0  0  0  0  0  0
   -1.3080   69.0380   64.4920 O   0  0  0  0  0  0  0  0  0  0  0  0
    2.7050   60.5130   73.5300 C   0  0  0  0  0  0  0  0  0  0  0  0
    3.3230   60.6670   72.1660 C   0  0  0  0  0  0  0  0  0  0  0  0
    3.0520   59.7360   71.1520 C   0  0  0  0  0  0  0  0  0  0  0  0
    3.6530   59.8630   69.8980 C   0  0  0  0  0  0  0  0  0  0  0  0
    4.5280   60.9170   69.6470 C   0  0  0  0  0  0  0  0  0  0  0  0
    4.8010   61.8490   70.6450 C   0  0  0  0  0  0  0  0  0  0  0  0
    4.2040   61.7280   71.9000 C   0  0  0  0  0  0  0  0  0  0  0  0
   -0.5434   64.3090   72.8954 H   0  0  0  0  0  0  0  0  0  0  0  0
   -1.1375   62.1388   73.2317 H   0  0  0  0  0  0  0  0  0  0  0  0
   -1.0722   62.1502   71.4206 H   0  0  0  0  0  0  0  0  0  0  0  0
    0.0599   60.1649   72.3041 H   0  0  0  0  0  0  0  0  0  0  0  0
    1.2366   61.2747   71.5126 H   0  0  0  0  0  0  0  0  0  0  0  0
    0.8035   60.6864   74.3408 H   0  0  0  0  0  0  0  0  0  0  0  0
    0.6407   62.7820   74.9265 H   0  0  0  0  0  0  0  0  0  0  0  0
    2.4355   62.6674   74.8037 H   0  0  0  0  0  0  0  0  0  0  0  0
    1.6294   64.6385   73.6024 H   0  0  0  0  0  0  0  0  0  0  0  0
    2.2976   63.4119   72.4487 H   0  0  0  0  0  0  0  0  0  0  0  0
    1.1872   63.6503   70.4591 H   0  0  0  0  0  0  0  0  0  0  0  0
   -0.5560   64.0410   70.3529 H   0  0  0  0  0  0  0  0  0  0  0  0
    1.9074   68.5951   67.8981 H   0  0  0  0  0  0  0  0  0  0  0  0
    2.2854   67.3346   70.0425 H   0  0  0  0  0  0  0  0  0  0  0  0
   -1.8120   66.4954   67.4322 H   0  0  0  0  0  0  0  0  0  0  0  0
    0.5562   68.9661   65.8463 H   0  0  0  0  0  0  0  0  0  0  0  0
   -2.0890   69.0939   63.8861 H   0  0  0  0  0  0  0  0  0  0  0  0
    3.3922   60.9379   74.2765 H   0  0  0  0  0  0  0  0  0  0  0  0
    2.5338   59.4390   73.6950 H   0  0  0  0  0  0  0  0  0  0  0  0
    2.3622   58.9014   71.3459 H   0  0  0  0  0  0  0  0  0  0  0  0
    3.4351   59.1297   69.1075 H   0  0  0  0  0  0  0  0  0  0  0  0
    5.0037   61.0133   68.6599 H   0  0  0  0  0  0  0  0  0  0  0  0
    5.4893   62.6830   70.4432 H   0  0  0  0  0  0  0  0  0  0  0  0
    4.4242   62.4668   72.6847 H   0  0  0  0  0  0  0  0  0  0  0  0
  2  1  1  0
  3  2  1  0
  4  3  1  0
  5  4  1  0
  6  5  1  0
  6  1  1  0
  7  1  1  0
  8  7  1  0
 10  9  2  0
 11 10  1  0
 12  8  1  0
 12 11  2  0
 13 12  1  0
 14 13  2  0
 14  9  1  0
 16 15  2  0
 16  9  1  0
 17 15  1  0
 18  4  1  0
 19 18  1  0
 20 19  2  0
 21 20  1  0
 22 21  2  0
 23 22  1  0
 24 23  2  0
 24 19  1  0
  1 25  1  0
  2 26  1  0
  2 27  1  0
  3 28  1  0
  3 29  1  0
  4 30  1  0
  5 31  1  0
  5 32  1  0
  6 33  1  0
  6 34  1  0
  7 35  1  0
  7 36  1  0
 10 37  1  0
 11 38  1  0
 14 39  1  0
 16 40  1  0
 17 41  1  0
 18 42  1  0
 18 43  1  0
 20 44  1  0
 21 45  1  0
 22 46  1  0
 23 47  1  0
 24 48  1  0
M  CHG  1   4   1
M  END
>  <score>  (5) 
-8.134

$$$$
=
     RDKit          3D

 48 50  0  0  0  0  0  0  0  0999 V2000
    4.8050   60.8410   70.7150 C   0  0  0  0  0  0  0  0  0  0  0  0
    3.7840   60.8170   69.5680 C   0  0  0  0  0  0  0  0  0  0  0  0
    2.6660   61.8250   69.7900 C   0  0  0  0  0  0  0  0  0  0  0  0
    3.2310   63.2330   69.8180 N   0  0  0  0  0  4  0  0  0  0  0  0
    4.6600   63.3320   70.3120 C   0  0  0  0  0  0  0  0  0  0  0  0
    4.9400   62.2470   71.3340 C   0  0  0  0  0  0  0  0  0  0  0  0
    4.4570   59.8040   71.7970 C   0  0  0  0  0  0  0  0  0  0  0  0
    3.6790   58.7660   71.1990 O   0  0  0  0  0  0  0  0  0  0  0  0
    0.5580   57.5960   73.6050 C   0  0  0  0  0  0  0  0  0  0  0  0
    0.8140   58.9540   73.4210 C   0  0  0  0  0  0  0  0  0  0  0  0
    1.8780   59.3350   72.6050 C   0  0  0  0  0  0  0  0  0  0  0  0
    2.6430   58.3420   72.0080 C   0  0  0  0  0  0  0  0  0  0  0  0
    2.4150   57.0210   72.1620 N   0  0  0  0  0  0  0  0  0  0  0  0
    1.3750   56.6760   72.9630 C   0  0  0  0  0  0  0  0  0  0  0  0
   -1.0560   55.9730   74.3770 N   0  0  0  0  0  0  0  0  0  0  0  0
   -0.5560   57.1650   74.4590 C   0  0  0  0  0  0  0  0  0  0  0  0
   -2.0950   55.8610   75.3060 O   0  0  0  0  0  0  0  0  0  0  0  0
    2.3060   64.2100   70.5220 C   0  0  0  0  0  0  0  0  0  0  0  0
    1.4470   63.5540   71.5690 C   0  0  0  0  0  0  0  0  0  0  0  0
    1.9410   63.3400   72.8640 C   0  0  0  0  0  0  0  0  0  0  0  0
    1.1540   62.7010   73.8240 C   0  0  0  0  0  0  0  0  0  0  0  0
   -0.1310   62.2710   73.4990 C   0  0  0  0  0  0  0  0  0  0  0  0
   -0.6330   62.4820   72.2180 C   0  0  0  0  0  0  0  0  0  0  0  0
    0.1480   63.1200   71.2550 C   0  0  0  0  0  0  0  0  0  0  0  0
    5.7793   60.5717   70.2811 H   0  0  0  0  0  0  0  0  0  0  0  0
    4.2995   61.0577   68.6265 H   0  0  0  0  0  0  0  0  0  0  0  0
    3.3375   59.8125   69.5267 H   0  0  0  0  0  0  0  0  0  0  0  0
    1.9345   61.7428   68.9726 H   0  0  0  0  0  0  0  0  0  0  0  0
    2.1772   61.6141   70.7526 H   0  0  0  0  0  0  0  0  0  0  0  0
    3.2803   63.5142   68.8284 H   0  0  0  0  0  0  0  0  0  0  0  0
    5.3471   63.2149   69.4610 H   0  0  0  0  0  0  0  0  0  0  0  0
    4.8083   64.3146   70.7836 H   0  0  0  0  0  0  0  0  0  0  0  0
    5.9634   62.3723   71.7174 H   0  0  0  0  0  0  0  0  0  0  0  0
    4.2042   62.3392   72.1464 H   0  0  0  0  0  0  0  0  0  0  0  0
    5.3818   59.3800   72.2152 H   0  0  0  0  0  0  0  0  0  0  0  0
    3.8867   60.2824   72.6069 H   0  0  0  0  0  0  0  0  0  0  0  0
    0.1865   59.7126   73.9118 H   0  0  0  0  0  0  0  0  0  0  0  0
    2.1063   60.3980   72.4379 H   0  0  0  0  0  0  0  0  0  0  0  0
    1.1679   55.6060   73.1118 H   0  0  0  0  0  0  0  0  0  0  0  0
   -0.9771   57.8733   75.1877 H   0  0  0  0  0  0  0  0  0  0  0  0
   -2.5979   55.0120   75.3862 H   0  0  0  0  0  0  0  0  0  0  0  0
    2.9177   64.9858   71.0057 H   0  0  0  0  0  0  0  0  0  0  0  0
    1.6333   64.6334   69.7616 H   0  0  0  0  0  0  0  0  0  0  0  0
    2.9548   63.6777   73.1250 H   0  0  0  0  0  0  0  0  0  0  0  0
    1.5486   62.5369   74.8376 H   0  0  0  0  0  0  0  0  0  0  0  0
   -0.7489   61.7646   74.2551 H   0  0  0  0  0  0  0  0  0  0  0  0
   -1.6488   62.1445   71.9646 H   0  0  0  0  0  0  0  0  0  0  0  0
   -0.2548   63.2843   70.2447 H   0  0  0  0  0  0  0  0  0  0  0  0
  2  1  1  0
  3  2  1  0
  4  3  1  0
  5  4  1  0
  6  5  1  0
  6  1  1  0
  7  1  1  0
  8  7  1  0
 10  9  2  0
 11 10  1  0
 12  8  1  0
 12 11  2  0
 13 12  1  0
 14 13  2  0
 14  9  1  0
 16 15  2  0
 16  9  1  0
 17 15  1  0
 18  4  1  0
 19 18  1  0
 20 19  2  0
 21 20  1  0
 22 21  2  0
 23 22  1  0
 24 23  2  0
 24 19  1  0
  1 25  1  0
  2 26  1  0
  2 27  1  0
  3 28  1  0
  3 29  1  0
  4 30  1  0
  5 31  1  0
  5 32  1  0
  6 33  1  0
  6 34  1  0
  7 35  1  0
  7 36  1  0
 10 37  1  0
 11 38  1  0
 14 39  1  0
 16 40  1  0
 17 41  1  0
 18 42  1  0
 18 43  1  0
 20 44  1  0
 21 45  1  0
 22 46  1  0
 23 47  1  0
 24 48  1  0
M  CHG  1   4   1
M  END
>  <score>  (6) 
-7.948

$$$$
=
     RDKit          3D

 48 50  0  0  0  0  0  0  0  0999 V2000
    4.2420   62.5460   70.0870 C   0  0  0  0  0  0  0  0  0  0  0  0
    3.0670   61.8580   69.3750 C   0  0  0  0  0  0  0  0  0  0  0  0
    1.7520   62.1010   70.0990 C   0  0  0  0  0  0  0  0  0  0  0  0
    1.4270   63.5840   70.1050 N   0  0  0  0  0  4  0  0  0  0  0  0
    2.6350   64.4970   70.0770 C   0  0  0  0  0  0  0  0  0  0  0  0
    3.8040   63.8450   70.7910 C   0  0  0  0  0  0  0  0  0  0  0  0
    4.9290   61.5940   71.0820 C   0  0  0  0  0  0  0  0  0  0  0  0
    4.9350   60.2790   70.5250 O   0  0  0  0  0  0  0  0  0  0  0  0
    2.3320   57.7990   72.5190 C   0  0  0  0  0  0  0  0  0  0  0  0
    2.7510   58.9840   73.1210 C   0  0  0  0  0  0  0  0  0  0  0  0
    3.6360   59.8130   72.4330 C   0  0  0  0  0  0  0  0  0  0  0  0
    4.0680   59.4210   71.1740 C   0  0  0  0  0  0  0  0  0  0  0  0
    3.6740   58.2840   70.5630 N   0  0  0  0  0  0  0  0  0  0  0  0
    2.8140   57.4930   71.2540 C   0  0  0  0  0  0  0  0  0  0  0  0
    1.7740   55.7520   73.6740 N   0  0  0  0  0  0  0  0  0  0  0  0
    1.4000   56.9060   73.2190 C   0  0  0  0  0  0  0  0  0  0  0  0
    0.6760   55.1370   74.2840 O   0  0  0  0  0  0  0  0  0  0  0  0
    0.4470   63.9530   71.2050 C   0  0  0  0  0  0  0  0  0  0  0  0
    0.4610   62.9810   72.3540 C   0  0  0  0  0  0  0  0  0  0  0  0
   -0.5090   61.9710   72.4440 C   0  0  0  0  0  0  0  0  0  0  0  0
   -0.5130   61.0910   73.5280 C   0  0  0  0  0  0  0  0  0  0  0  0
    0.4480   61.2120   74.5290 C   0  0  0  0  0  0  0  0  0  0  0  0
    1.4180   62.2080   74.4480 C   0  0  0  0  0  0  0  0  0  0  0  0
    1.4280   63.0900   73.3670 C   0  0  0  0  0  0  0  0  0  0  0  0
    4.9728   62.8170   69.3108 H   0  0  0  0  0  0  0  0  0  0  0  0
    2.9891   62.2536   68.3516 H   0  0  0  0  0  0  0  0  0  0  0  0
    3.2583   60.7748   69.3648 H   0  0  0  0  0  0  0  0  0  0  0  0
    0.9474   61.5541   69.5856 H   0  0  0  0  0  0  0  0  0  0  0  0
    1.8413   61.7474   71.1368 H   0  0  0  0  0  0  0  0  0  0  0  0
    0.9567   63.7521   69.2042 H   0  0  0  0  0  0  0  0  0  0  0  0
    2.9141   64.6977   69.0321 H   0  0  0  0  0  0  0  0  0  0  0  0
    2.3840   65.4386   70.5873 H   0  0  0  0  0  0  0  0  0  0  0  0
    4.6508   64.5470   70.8052 H   0  0  0  0  0  0  0  0  0  0  0  0
    3.4870   63.5934   71.8138 H   0  0  0  0  0  0  0  0  0  0  0  0
    5.9626   61.9261   71.2591 H   0  0  0  0  0  0  0  0  0  0  0  0
    4.3856   61.5943   72.0384 H   0  0  0  0  0  0  0  0  0  0  0  0
    2.3895   59.2607   74.1224 H   0  0  0  0  0  0  0  0  0  0  0  0
    3.9840   60.7567   72.8783 H   0  0  0  0  0  0  0  0  0  0  0  0
    2.4801   56.5560   70.7845 H   0  0  0  0  0  0  0  0  0  0  0  0
    0.3569   57.2252   73.3608 H   0  0  0  0  0  0  0  0  0  0  0  0
    0.7744   54.2404   74.6920 H   0  0  0  0  0  0  0  0  0  0  0  0
    0.7078   64.9511   71.5868 H   0  0  0  0  0  0  0  0  0  0  0  0
   -0.5622   63.9320   70.7679 H   0  0  0  0  0  0  0  0  0  0  0  0
   -1.2704   61.8720   71.6563 H   0  0  0  0  0  0  0  0  0  0  0  0
   -1.2760   60.3012   73.5916 H   0  0  0  0  0  0  0  0  0  0  0  0
    0.4408   60.5203   75.3842 H   0  0  0  0  0  0  0  0  0  0  0  0
    2.1779   62.2995   75.2380 H   0  0  0  0  0  0  0  0  0  0  0  0
    2.1968   63.8745   73.3077 H   0  0  0  0  0  0  0  0  0  0  0  0
  2  1  1  0
  3  2  1  0
  4  3  1  0
  5  4  1  0
  6  5  1  0
  6  1  1  0
  7  1  1  0
  8  7  1  0
 10  9  2  0
 11 10  1  0
 12  8  1  0
 12 11  2  0
 13 12  1  0
 14 13  2  0
 14  9  1  0
 16 15  2  0
 16  9  1  0
 17 15  1  0
 18  4  1  0
 19 18  1  0
 20 19  2  0
 21 20  1  0
 22 21  2  0
 23 22  1  0
 24 23  2  0
 24 19  1  0
  1 25  1  0
  2 26  1  0
  2 27  1  0
  3 28  1  0
  3 29  1  0
  4 30  1  0
  5 31  1  0
  5 32  1  0
  6 33  1  0
  6 34  1  0
  7 35  1  0
  7 36  1  0
 10 37  1  0
 11 38  1  0
 14 39  1  0
 16 40  1  0
 17 41  1  0
 18 42  1  0
 18 43  1  0
 20 44  1  0
 21 45  1  0
 22 46  1  0
 23 47  1  0
 24 48  1  0
M  CHG  1   4   1
M  END
>  <score>  (7) 
-7.936

$$$$
=
     RDKit          3D

 48 50  0  0  0  0  0  0  0  0999 V2000
    3.6880   59.0620   71.3860 C   0  0  0  0  0  0  0  0  0  0  0  0
    3.4050   59.5260   69.9490 C   0  0  0  0  0  0  0  0  0  0  0  0
    3.2970   61.0410   69.8590 C   0  0  0  0  0  0  0  0  0  0  0  0
    4.6160   61.6820   70.2550 N   0  0  0  0  0  4  0  0  0  0  0  0
    5.4350   60.8830   71.2460 C   0  0  0  0  0  0  0  0  0  0  0  0
    4.5250   60.0940   72.1680 C   0  0  0  0  0  0  0  0  0  0  0  0
    2.3850   58.7390   72.1370 C   0  0  0  0  0  0  0  0  0  0  0  0
    2.5370   59.1310   73.5020 O   0  0  0  0  0  0  0  0  0  0  0  0
   -0.7370   61.2220   74.8460 C   0  0  0  0  0  0  0  0  0  0  0  0
   -0.8270   60.4860   73.6660 C   0  0  0  0  0  0  0  0  0  0  0  0
    0.2930   59.7860   73.2210 C   0  0  0  0  0  0  0  0  0  0  0  0
    1.4570   59.8510   73.9740 C   0  0  0  0  0  0  0  0  0  0  0  0
    1.5710   60.5480   75.1250 N   0  0  0  0  0  0  0  0  0  0  0  0
    0.4680   61.2240   75.5350 C   0  0  0  0  0  0  0  0  0  0  0  0
   -3.0830   61.7980   74.8390 N   0  0  0  0  0  0  0  0  0  0  0  0
   -1.9010   61.9700   75.3390 C   0  0  0  0  0  0  0  0  0  0  0  0
   -3.9760   62.6430   75.5050 O   0  0  0  0  0  0  0  0  0  0  0  0
    4.4460   63.1300   70.6760 C   0  0  0  0  0  0  0  0  0  0  0  0
    3.0240   63.4770   71.0270 C   0  0  0  0  0  0  0  0  0  0  0  0
    2.2740   64.3270   70.2010 C   0  0  0  0  0  0  0  0  0  0  0  0
    0.9660   64.6740   70.5460 C   0  0  0  0  0  0  0  0  0  0  0  0
    0.3980   64.1760   71.7170 C   0  0  0  0  0  0  0  0  0  0  0  0
    1.1320   63.3270   72.5420 C   0  0  0  0  0  0  0  0  0  0  0  0
    2.4390   62.9770   72.2020 C   0  0  0  0  0  0  0  0  0  0  0  0
    4.2806   58.1382   71.3131 H   0  0  0  0  0  0  0  0  0  0  0  0
    4.2238   59.1874   69.2971 H   0  0  0  0  0  0  0  0  0  0  0  0
    2.4446   59.0938   69.6315 H   0  0  0  0  0  0  0  0  0  0  0  0
    3.0486   61.3275   68.8264 H   0  0  0  0  0  0  0  0  0  0  0  0
    2.5083   61.3873   70.5431 H   0  0  0  0  0  0  0  0  0  0  0  0
    5.1799   61.6764   69.3931 H   0  0  0  0  0  0  0  0  0  0  0  0
    6.0884   60.1874   70.6990 H   0  0  0  0  0  0  0  0  0  0  0  0
    6.0411   61.5752   71.8489 H   0  0  0  0  0  0  0  0  0  0  0  0
    5.1400   59.5661   72.9117 H   0  0  0  0  0  0  0  0  0  0  0  0
    3.8362   60.7973   72.6588 H   0  0  0  0  0  0  0  0  0  0  0  0
    1.5491   59.2918   71.6835 H   0  0  0  0  0  0  0  0  0  0  0  0
    2.1736   57.6612   72.0767 H   0  0  0  0  0  0  0  0  0  0  0  0
   -1.7668   60.4580   73.0951 H   0  0  0  0  0  0  0  0  0  0  0  0
    0.2552   59.1953   72.2938 H   0  0  0  0  0  0  0  0  0  0  0  0
    0.5325   61.8064   76.4659 H   0  0  0  0  0  0  0  0  0  0  0  0
   -1.7650   62.6955   76.1546 H   0  0  0  0  0  0  0  0  0  0  0  0
   -4.9337   62.6477   75.2541 H   0  0  0  0  0  0  0  0  0  0  0  0
    5.0797   63.3161   71.5557 H   0  0  0  0  0  0  0  0  0  0  0  0
    4.7365   63.7578   69.8207 H   0  0  0  0  0  0  0  0  0  0  0  0
    2.7187   64.7226   69.2760 H   0  0  0  0  0  0  0  0  0  0  0  0
    0.3838   65.3408   69.8930 H   0  0  0  0  0  0  0  0  0  0  0  0
   -0.6308   64.4536   71.9900 H   0  0  0  0  0  0  0  0  0  0  0  0
    0.6801   62.9316   73.4637 H   0  0  0  0  0  0  0  0  0  0  0  0
    3.0141   62.3063   72.8572 H   0  0  0  0  0  0  0  0  0  0  0  0
  2  1  1  0
  3  2  1  0
  4  3  1  0
  5  4  1  0
  6  5  1  0
  6  1  1  0
  7  1  1  0
  8  7  1  0
 10  9  2  0
 11 10  1  0
 12  8  1  0
 12 11  2  0
 13 12  1  0
 14 13  2  0
 14  9  1  0
 16 15  2  0
 16  9  1  0
 17 15  1  0
 18  4  1  0
 19 18  1  0
 20 19  2  0
 21 20  1  0
 22 21  2  0
 23 22  1  0
 24 23  2  0
 24 19  1  0
  1 25  1  0
  2 26  1  0
  2 27  1  0
  3 28  1  0
  3 29  1  0
  4 30  1  0
  5 31  1  0
  5 32  1  0
  6 33  1  0
  6 34  1  0
  7 35  1  0
  7 36  1  0
 10 37  1  0
 11 38  1  0
 14 39  1  0
 16 40  1  0
 17 41  1  0
 18 42  1  0
 18 43  1  0
 20 44  1  0
 21 45  1  0
 22 46  1  0
 23 47  1  0
 24 48  1  0
M  CHG  1   4   1
M  END
>  <score>  (8) 
-7.914

$$$$
=
     RDKit          3D

 48 50  0  0  0  0  0  0  0  0999 V2000
    0.6550   67.5670   68.0450 C   0  0  0  0  0  0  0  0  0  0  0  0
    0.8370   69.0920   68.0760 C   0  0  0  0  0  0  0  0  0  0  0  0
    2.1940   69.5070   67.5270 C   0  0  0  0  0  0  0  0  0  0  0  0
    2.3120   69.1010   66.0680 N   0  0  0  0  0  4  0  0  0  0  0  0
    1.5090   67.8760   65.6860 C   0  0  0  0  0  0  0  0  0  0  0  0
    1.4070   66.9240   66.8630 C   0  0  0  0  0  0  0  0  0  0  0  0
    1.0840   66.9240   69.3750 C   0  0  0  0  0  0  0  0  0  0  0  0
    0.1830   65.8580   69.6770 O   0  0  0  0  0  0  0  0  0  0  0  0
    2.0160   62.9330   71.9080 C   0  0  0  0  0  0  0  0  0  0  0  0
    2.7760   63.7120   71.0380 C   0  0  0  0  0  0  0  0  0  0  0  0
    2.1400   64.6980   70.2860 C   0  0  0  0  0  0  0  0  0  0  0  0
    0.7690   64.8620   70.4330 C   0  0  0  0  0  0  0  0  0  0  0  0
    0.0090   64.1280   71.2730 N   0  0  0  0  0  0  0  0  0  0  0  0
    0.6520   63.1730   71.9930 C   0  0  0  0  0  0  0  0  0  0  0  0
    2.5300   61.8420   74.0010 N   0  0  0  0  0  0  0  0  0  0  0  0
    2.6600   61.8870   72.7140 C   0  0  0  0  0  0  0  0  0  0  0  0
    3.2520   60.7450   74.4840 O   0  0  0  0  0  0  0  0  0  0  0  0
    3.7580   69.0130   65.6130 C   0  0  0  0  0  0  0  0  0  0  0  0
    3.9090   68.3720   64.2600 C   0  0  0  0  0  0  0  0  0  0  0  0
    4.4010   67.0630   64.1430 C   0  0  0  0  0  0  0  0  0  0  0  0
    4.5710   66.4830   62.8850 C   0  0  0  0  0  0  0  0  0  0  0  0
    4.2520   67.2020   61.7350 C   0  0  0  0  0  0  0  0  0  0  0  0
    3.7580   68.5000   61.8390 C   0  0  0  0  0  0  0  0  0  0  0  0
    3.5860   69.0850   63.0940 C   0  0  0  0  0  0  0  0  0  0  0  0
   -0.4188   67.3758   67.9019 H   0  0  0  0  0  0  0  0  0  0  0  0
    0.0482   69.5578   67.4670 H   0  0  0  0  0  0  0  0  0  0  0  0
    0.7739   69.4241   69.1228 H   0  0  0  0  0  0  0  0  0  0  0  0
    2.3024   70.5984   67.6110 H   0  0  0  0  0  0  0  0  0  0  0  0
    2.9850   69.0072   68.1054 H   0  0  0  0  0  0  0  0  0  0  0  0
    1.8707   69.8703   65.5442 H   0  0  0  0  0  0  0  0  0  0  0  0
    0.4984   68.1854   65.3811 H   0  0  0  0  0  0  0  0  0  0  0  0
    2.0136   67.3630   64.8540 H   0  0  0  0  0  0  0  0  0  0  0  0
    0.8676   66.0194   66.5456 H   0  0  0  0  0  0  0  0  0  0  0  0
    2.4256   66.6755   67.1957 H   0  0  0  0  0  0  0  0  0  0  0  0
    2.1069   66.5299   69.2832 H   0  0  0  0  0  0  0  0  0  0  0  0
    1.0621   67.6740   70.1794 H   0  0  0  0  0  0  0  0  0  0  0  0
    3.8603   63.5514   70.9462 H   0  0  0  0  0  0  0  0  0  0  0  0
    2.7111   65.3319   69.5918 H   0  0  0  0  0  0  0  0  0  0  0  0
    0.0582   62.5549   72.6824 H   0  0  0  0  0  0  0  0  0  0  0  0
    3.2688   61.1217   72.2103 H   0  0  0  0  0  0  0  0  0  0  0  0
    3.2678   60.5514   75.4548 H   0  0  0  0  0  0  0  0  0  0  0  0
    4.1741   70.0303   65.5677 H   0  0  0  0  0  0  0  0  0  0  0  0
    4.2941   68.3830   66.3380 H   0  0  0  0  0  0  0  0  0  0  0  0
    4.6541   66.4909   65.0478 H   0  0  0  0  0  0  0  0  0  0  0  0
    4.9575   65.4565   62.8013 H   0  0  0  0  0  0  0  0  0  0  0  0
    4.3904   66.7442   60.7444 H   0  0  0  0  0  0  0  0  0  0  0  0
    3.5030   69.0649   60.9302 H   0  0  0  0  0  0  0  0  0  0  0  0
    3.1952   70.1104   63.1705 H   0  0  0  0  0  0  0  0  0  0  0  0
  2  1  1  0
  3  2  1  0
  4  3  1  0
  5  4  1  0
  6  5  1  0
  6  1  1  0
  7  1  1  0
  8  7  1  0
 10  9  2  0
 11 10  1  0
 12  8  1  0
 12 11  2  0
 13 12  1  0
 14 13  2  0
 14  9  1  0
 16 15  2  0
 16  9  1  0
 17 15  1  0
 18  4  1  0
 19 18  1  0
 20 19  2  0
 21 20  1  0
 22 21  2  0
 23 22  1  0
 24 23  2  0
 24 19  1  0
  1 25  1  0
  2 26  1  0
  2 27  1  0
  3 28  1  0
  3 29  1  0
  4 30  1  0
  5 31  1  0
  5 32  1  0
  6 33  1  0
  6 34  1  0
  7 35  1  0
  7 36  1  0
 10 37  1  0
 11 38  1  0
 14 39  1  0
 16 40  1  0
 17 41  1  0
 18 42  1  0
 18 43  1  0
 20 44  1  0
 21 45  1  0
 22 46  1  0
 23 47  1  0
 24 48  1  0
M  CHG  1   4   1
M  END
>  <score>  (9) 
-7.739

$$$$
