=
     RDKit          3D

 41 43  0  0  0  0  0  0  0  0999 V2000
    1.9130   61.3440   72.2500 N   0  0  0  0  0  0  0  0  0  0  0  0
    2.5590   62.2690   71.4400 C   0  0  0  0  0  0  0  0  0  0  0  0
    3.4280   61.9960   70.4620 C   0  0  0  0  0  0  0  0  0  0  0  0
    3.7370   60.5930   70.1720 C   0  0  0  0  0  0  0  0  0  0  0  0
    4.4610   60.2190   69.2560 O   0  0  0  0  0  0  0  0  0  0  0  0
    3.0790   59.5770   71.0350 C   0  0  0  0  0  0  0  0  0  0  0  0
    2.1700   59.9730   72.0400 C   0  0  0  0  0  0  0  0  0  0  0  0
    1.5600   58.9470   72.7880 C   0  0  0  0  0  0  0  0  0  0  0  0
    1.8260   57.5790   72.5680 C   0  0  0  0  0  0  0  0  0  0  0  0
    2.7530   57.2520   71.5630 C   0  0  0  0  0  0  0  0  0  0  0  0
    3.3730   58.2280   70.8030 C   0  0  0  0  0  0  0  0  0  0  0  0
    3.0350   55.9690   71.2870 F   0  0  0  0  0  0  0  0  0  0  0  0
    1.1340   56.6290   73.3650 N   0  0  0  0  0  0  0  0  0  0  0  0
    1.9990   56.1480   74.4780 C   0  0  0  0  0  0  0  0  0  0  0  0
    1.2080   55.1890   75.4010 C   0  0  0  0  0  0  0  0  0  0  0  0
    0.0000   54.6700   74.6630 N   0  0  0  0  0  4  0  0  0  0  0  0
   -0.9800   55.7670   74.3140 C   0  0  0  0  0  0  0  0  0  0  0  0
   -0.2290   57.0170   73.8010 C   0  0  0  0  0  0  0  0  0  0  0  0
    4.0540   63.1480   69.7130 C   0  0  0  0  0  0  0  0  0  0  0  0
    5.0830   63.6420   70.2620 O   0  0  0  0  0  0  0  0  0  0  0  0
    3.5460   63.4040   68.5860 O   0  0  0  0  0  1  0  0  0  0  0  0
   -0.4020   62.0850   72.6650 C   0  0  0  0  0  0  0  0  0  0  0  0
    0.9650   61.8060   73.2720 C   0  0  0  0  0  0  0  0  0  0  0  0
    2.3333   63.3302   71.6212 H   0  0  0  0  0  0  0  0  0  0  0  0
    0.8458   59.2242   73.5773 H   0  0  0  0  0  0  0  0  0  0  0  0
    4.0930   57.9455   70.0208 H   0  0  0  0  0  0  0  0  0  0  0  0
    2.8656   55.6153   74.0593 H   0  0  0  0  0  0  0  0  0  0  0  0
    2.3358   57.0134   75.0675 H   0  0  0  0  0  0  0  0  0  0  0  0
    1.8512   54.3454   75.6920 H   0  0  0  0  0  0  0  0  0  0  0  0
    0.8846   55.7292   76.3030 H   0  0  0  0  0  0  0  0  0  0  0  0
    0.3138   54.2179   73.7923 H   0  0  0  0  0  0  0  0  0  0  0  0
   -0.4831   54.0038   75.2824 H   0  0  0  0  0  0  0  0  0  0  0  0
   -1.6628   55.4072   73.5302 H   0  0  0  0  0  0  0  0  0  0  0  0
   -1.5490   56.0375   75.2157 H   0  0  0  0  0  0  0  0  0  0  0  0
   -0.7764   57.4509   72.9512 H   0  0  0  0  0  0  0  0  0  0  0  0
   -0.1584   57.7602   74.6089 H   0  0  0  0  0  0  0  0  0  0  0  0
   -1.1368   62.2350   73.4697 H   0  0  0  0  0  0  0  0  0  0  0  0
   -0.3491   62.9909   72.0432 H   0  0  0  0  0  0  0  0  0  0  0  0
   -0.7083   61.2309   72.0432 H   0  0  0  0  0  0  0  0  0  0  0  0
    1.3507   62.7295   73.7285 H   0  0  0  0  0  0  0  0  0  0  0  0
    0.8561   61.0163   74.0300 H   0  0  0  0  0  0  0  0  0  0  0  0
  2  1  1  0
  3  2  2  0
  4  3  1  0
  5  4  2  0
  6  4  1  0
  7  6  2  0
  7  1  1  0
  8  7  1  0
  9  8  2  0
 10  9  1  0
 11 10  2  0
 11  6  1  0
 12 10  1  0
 13  9  1  0
 14 13  1  0
 15 14  1  0
 16 15  1  0
 17 16  1  0
 18 17  1  0
 18 13  1  0
 19  3  1  0
 20 19  2  0
 21 19  1  0
 23 22  1  0
 23  1  1  0
  2 24  1  0
  8 25  1  0
 11 26  1  0
 14 27  1  0
 14 28  1  0
 15 29  1  0
 15 30  1  0
 16 31  1  0
 16 32  1  0
 17 33  1  0
 17 34  1  0
 18 35  1  0
 18 36  1  0
 22 37  1  0
 22 38  1  0
 22 39  1  0
 23 40  1  0
 23 41  1  0
M  CHG  2  16   1  21  -1
M  END
>  <score>  (1) 
-7.713

$$$$
=
     RDKit          3D

 41 43  0  0  0  0  0  0  0  0999 V2000
    0.2610   62.2260   72.6590 N   0  0  0  0  0  0  0  0  0  0  0  0
    0.1840   63.3840   71.8970 C   0  0  0  0  0  0  0  0  0  0  0  0
    0.9240   63.6780   70.8240 C   0  0  0  0  0  0  0  0  0  0  0  0
    1.9100   62.6960   70.3640 C   0  0  0  0  0  0  0  0  0  0  0  0
    2.5950   62.8230   69.3550 O   0  0  0  0  0  0  0  0  0  0  0  0
    2.0350   61.4540   71.1710 C   0  0  0  0  0  0  0  0  0  0  0  0
    1.1970   61.2380   72.2870 C   0  0  0  0  0  0  0  0  0  0  0  0
    1.3520   60.0190   72.9730 C   0  0  0  0  0  0  0  0  0  0  0  0
    2.2920   59.0390   72.5900 C   0  0  0  0  0  0  0  0  0  0  0  0
    3.1070   59.3210   71.4810 C   0  0  0  0  0  0  0  0  0  0  0  0
    2.9860   60.5060   70.7750 C   0  0  0  0  0  0  0  0  0  0  0  0
    4.0070   58.4240   71.0490 F   0  0  0  0  0  0  0  0  0  0  0  0
    2.3440   57.8350   73.3420 N   0  0  0  0  0  0  0  0  0  0  0  0
    2.7670   58.1080   74.7430 C   0  0  0  0  0  0  0  0  0  0  0  0
    2.7260   56.8080   75.5830 C   0  0  0  0  0  0  0  0  0  0  0  0
    2.7370   55.6170   74.6590 N   0  0  0  0  0  4  0  0  0  0  0  0
    1.5050   55.5520   73.7850 C   0  0  0  0  0  0  0  0  0  0  0  0
    1.1540   56.9570   73.2430 C   0  0  0  0  0  0  0  0  0  0  0  0
    0.7130   65.0110   70.1480 C   0  0  0  0  0  0  0  0  0  0  0  0
    1.6770   65.8260   70.2670 O   0  0  0  0  0  0  0  0  0  0  0  0
   -0.3400   65.1110   69.4590 O   0  0  0  0  0  1  0  0  0  0  0  0
   -1.8780   61.2490   73.4020 C   0  0  0  0  0  0  0  0  0  0  0  0
   -0.6430   62.0420   73.8020 C   0  0  0  0  0  0  0  0  0  0  0  0
   -0.5594   64.1332   72.2071 H   0  0  0  0  0  0  0  0  0  0  0  0
    0.7124   59.8216   73.8459 H   0  0  0  0  0  0  0  0  0  0  0  0
    3.6336   60.7015   69.9076 H   0  0  0  0  0  0  0  0  0  0  0  0
    3.7926   58.5058   74.7408 H   0  0  0  0  0  0  0  0  0  0  0  0
    2.0777   58.8413   75.1871 H   0  0  0  0  0  0  0  0  0  0  0  0
    3.6052   56.7691   76.2430 H   0  0  0  0  0  0  0  0  0  0  0  0
    1.8109   56.7924   76.1932 H   0  0  0  0  0  0  0  0  0  0  0  0
    3.5686   55.6757   74.0541 H   0  0  0  0  0  0  0  0  0  0  0  0
    2.7526   54.7681   75.2422 H   0  0  0  0  0  0  0  0  0  0  0  0
    1.6957   54.8746   72.9396 H   0  0  0  0  0  0  0  0  0  0  0  0
    0.6613   55.1798   74.3847 H   0  0  0  0  0  0  0  0  0  0  0  0
    0.8434   56.8773   72.1908 H   0  0  0  0  0  0  0  0  0  0  0  0
    0.3320   57.3845   73.8360 H   0  0  0  0  0  0  0  0  0  0  0  0
   -2.4051   60.9105   74.3062 H   0  0  0  0  0  0  0  0  0  0  0  0
   -2.5462   61.8873   72.8053 H   0  0  0  0  0  0  0  0  0  0  0  0
   -1.5757   60.3758   72.8053 H   0  0  0  0  0  0  0  0  0  0  0  0
   -0.9550   63.0285   74.1756 H   0  0  0  0  0  0  0  0  0  0  0  0
   -0.1077   61.4837   74.5842 H   0  0  0  0  0  0  0  0  0  0  0  0
  2  1  1  0
  3  2  2  0
  4  3  1  0
  5  4  2  0
  6  4  1  0
  7  6  2  0
  7  1  1  0
  8  7  1  0
  9  8  2  0
 10  9  1  0
 11 10  2  0
 11  6  1  0
 12 10  1  0
 13  9  1  0
 14 13  1  0
 15 14  1  0
 16 15  1  0
 17 16  1  0
 18 17  1  0
 18 13  1  0
 19  3  1  0
 20 19  2  0
 21 19  1  0
 23 22  1  0
 23  1  1  0
  2 24  1  0
  8 25  1  0
 11 26  1  0
 14 27  1  0
 14 28  1  0
 15 29  1  0
 15 30  1  0
 16 31  1  0
 16 32  1  0
 17 33  1  0
 17 34  1  0
 18 35  1  0
 18 36  1  0
 22 37  1  0
 22 38  1  0
 22 39  1  0
 23 40  1  0
 23 41  1  0
M  CHG  2  16   1  21  -1
M  END
>  <score>  (2) 
-7.686

$$$$
=
     RDKit          3D

 41 43  0  0  0  0  0  0  0  0999 V2000
    2.9150   60.9610   71.3740 N   0  0  0  0  0  0  0  0  0  0  0  0
    2.5330   62.2000   70.8770 C   0  0  0  0  0  0  0  0  0  0  0  0
    1.3720   62.8220   71.1060 C   0  0  0  0  0  0  0  0  0  0  0  0
    0.3910   62.1740   71.9810 C   0  0  0  0  0  0  0  0  0  0  0  0
   -0.6740   62.6770   72.3190 O   0  0  0  0  0  0  0  0  0  0  0  0
    0.7590   60.8350   72.5120 C   0  0  0  0  0  0  0  0  0  0  0  0
    2.0180   60.2680   72.2130 C   0  0  0  0  0  0  0  0  0  0  0  0
    2.3040   59.0150   72.7880 C   0  0  0  0  0  0  0  0  0  0  0  0
    1.3970   58.3320   73.6260 C   0  0  0  0  0  0  0  0  0  0  0  0
    0.1550   58.9430   73.8710 C   0  0  0  0  0  0  0  0  0  0  0  0
   -0.1660   60.1750   73.3290 C   0  0  0  0  0  0  0  0  0  0  0  0
   -0.7450   58.3580   74.6770 F   0  0  0  0  0  0  0  0  0  0  0  0
    1.8030   57.0850   74.1710 N   0  0  0  0  0  0  0  0  0  0  0  0
    1.9720   57.1860   75.6470 C   0  0  0  0  0  0  0  0  0  0  0  0
    2.3180   55.8020   76.2470 C   0  0  0  0  0  0  0  0  0  0  0  0
    2.8360   54.9000   75.1560 N   0  0  0  0  0  4  0  0  0  0  0  0
    1.7930   54.6140   74.1000 C   0  0  0  0  0  0  0  0  0  0  0  0
    1.0160   55.9030   73.7450 C   0  0  0  0  0  0  0  0  0  0  0  0
    1.1290   64.1570   70.4440 C   0  0  0  0  0  0  0  0  0  0  0  0
    2.0980   64.9700   70.5170 O   0  0  0  0  0  0  0  0  0  0  0  0
    0.0430   64.2590   69.8080 O   0  0  0  0  0  1  0  0  0  0  0  0
    5.3450   61.3690   71.4910 C   0  0  0  0  0  0  0  0  0  0  0  0
    4.2410   60.4200   71.0460 C   0  0  0  0  0  0  0  0  0  0  0  0
    3.2562   62.7205   70.2320 H   0  0  0  0  0  0  0  0  0  0  0  0
    3.2769   58.5481   72.5747 H   0  0  0  0  0  0  0  0  0  0  0  0
   -1.1435   60.6335   73.5393 H   0  0  0  0  0  0  0  0  0  0  0  0
    2.7855   57.8917   75.8711 H   0  0  0  0  0  0  0  0  0  0  0  0
    1.0301   57.5414   76.0902 H   0  0  0  0  0  0  0  0  0  0  0  0
    3.0890   55.9204   77.0226 H   0  0  0  0  0  0  0  0  0  0  0  0
    1.4158   55.3586   76.6936 H   0  0  0  0  0  0  0  0  0  0  0  0
    3.6446   55.3540   74.7077 H   0  0  0  0  0  0  0  0  0  0  0  0
    3.0984   54.0029   75.5888 H   0  0  0  0  0  0  0  0  0  0  0  0
    2.2884   54.2292   73.1964 H   0  0  0  0  0  0  0  0  0  0  0  0
    1.0856   53.8678   74.4908 H   0  0  0  0  0  0  0  0  0  0  0  0
    0.8506   55.9444   72.6583 H   0  0  0  0  0  0  0  0  0  0  0  0
    0.0455   55.9015   74.2627 H   0  0  0  0  0  0  0  0  0  0  0  0
    5.3810   61.4000   72.5900 H   0  0  0  0  0  0  0  0  0  0  0  0
    6.3113   61.0153   71.1023 H   0  0  0  0  0  0  0  0  0  0  0  0
    5.1404   62.3775   71.1023 H   0  0  0  0  0  0  0  0  0  0  0  0
    4.3102   60.2733   69.9580 H   0  0  0  0  0  0  0  0  0  0  0  0
    4.3686   59.4634   71.5738 H   0  0  0  0  0  0  0  0  0  0  0  0
  2  1  1  0
  3  2  2  0
  4  3  1  0
  5  4  2  0
  6  4  1  0
  7  6  2  0
  7  1  1  0
  8  7  1  0
  9  8  2  0
 10  9  1  0
 11 10  2  0
 11  6  1  0
 12 10  1  0
 13  9  1  0
 14 13  1  0
 15 14  1  0
 16 15  1  0
 17 16  1  0
 18 17  1  0
 18 13  1  0
 19  3  1  0
 20 19  2  0
 21 19  1  0
 23 22  1  0
 23  1  1  0
  2 24  1  0
  8 25  1  0
 11 26  1  0
 14 27  1  0
 14 28  1  0
 15 29  1  0
 15 30  1  0
 16 31  1  0
 16 32  1  0
 17 33  1  0
 17 34  1  0
 18 35  1  0
 18 36  1  0
 22 37  1  0
 22 38  1  0
 22 39  1  0
 23 40  1  0
 23 41  1  0
M  CHG  2  16   1  21  -1
M  END
>  <score>  (3) 
-7.576

$$$$
=
     RDKit          3D

 41 43  0  0  0  0  0  0  0  0999 V2000
    3.7520   70.1570   68.1870 N   0  0  0  0  0  0  0  0  0  0  0  0
    4.8540   70.5080   68.9560 C   0  0  0  0  0  0  0  0  0  0  0  0
    6.1280   70.5290   68.5530 C   0  0  0  0  0  0  0  0  0  0  0  0
    6.4280   70.1730   67.1630 C   0  0  0  0  0  0  0  0  0  0  0  0
    7.5450   70.2230   66.6610 O   0  0  0  0  0  0  0  0  0  0  0  0
    5.2730   69.7680   66.3180 C   0  0  0  0  0  0  0  0  0  0  0  0
    3.9620   69.7870   66.8420 C   0  0  0  0  0  0  0  0  0  0  0  0
    2.9210   69.4280   65.9650 C   0  0  0  0  0  0  0  0  0  0  0  0
    3.1440   69.0610   64.6210 C   0  0  0  0  0  0  0  0  0  0  0  0
    4.4740   69.0470   64.1650 C   0  0  0  0  0  0  0  0  0  0  0  0
    5.5280   69.3960   64.9930 C   0  0  0  0  0  0  0  0  0  0  0  0
    4.7550   68.7290   62.8920 F   0  0  0  0  0  0  0  0  0  0  0  0
    2.0150   68.7430   63.8200 N   0  0  0  0  0  0  0  0  0  0  0  0
    0.7600   68.8490   64.6160 C   0  0  0  0  0  0  0  0  0  0  0  0
   -0.4730   68.5970   63.7160 C   0  0  0  0  0  0  0  0  0  0  0  0
   -0.0400   67.8750   62.4660 N   0  0  0  0  0  4  0  0  0  0  0  0
    0.8980   68.7020   61.6160 C   0  0  0  0  0  0  0  0  0  0  0  0
    1.9400   69.4200   62.5040 C   0  0  0  0  0  0  0  0  0  0  0  0
    7.1930   70.9090   69.5520 C   0  0  0  0  0  0  0  0  0  0  0  0
    8.0060   71.7950   69.1510 O   0  0  0  0  0  0  0  0  0  0  0  0
    7.0790   70.3850   70.6950 O   0  0  0  0  0  1  0  0  0  0  0  0
    1.8690   68.8050   69.0280 C   0  0  0  0  0  0  0  0  0  0  0  0
    2.4070   70.2060   68.7740 C   0  0  0  0  0  0  0  0  0  0  0  0
    4.6590   70.7971   69.9993 H   0  0  0  0  0  0  0  0  0  0  0  0
    1.8884   69.4339   66.3441 H   0  0  0  0  0  0  0  0  0  0  0  0
    6.5596   69.3809   64.6115 H   0  0  0  0  0  0  0  0  0  0  0  0
    0.7785   68.1016   65.4229 H   0  0  0  0  0  0  0  0  0  0  0  0
    0.6911   69.8617   65.0400 H   0  0  0  0  0  0  0  0  0  0  0  0
   -1.2052   67.9823   64.2601 H   0  0  0  0  0  0  0  0  0  0  0  0
   -0.9330   69.5586   63.4447 H   0  0  0  0  0  0  0  0  0  0  0  0
    0.4398   67.0047   62.7365 H   0  0  0  0  0  0  0  0  0  0  0  0
   -0.8834   67.6839   61.9065 H   0  0  0  0  0  0  0  0  0  0  0  0
    1.4195   68.0432   60.9061 H   0  0  0  0  0  0  0  0  0  0  0  0
    0.3128   69.4576   61.0714 H   0  0  0  0  0  0  0  0  0  0  0  0
    2.9252   69.3839   62.0160 H   0  0  0  0  0  0  0  0  0  0  0  0
    1.6408   70.4688   62.6468 H   0  0  0  0  0  0  0  0  0  0  0  0
    1.8014   68.6291   70.1117 H   0  0  0  0  0  0  0  0  0  0  0  0
    0.8699   68.7087   68.5779 H   0  0  0  0  0  0  0  0  0  0  0  0
    2.5468   68.0647   68.5779 H   0  0  0  0  0  0  0  0  0  0  0  0
    1.7317   70.7302   68.0818 H   0  0  0  0  0  0  0  0  0  0  0  0
    2.4642   70.7380   69.7351 H   0  0  0  0  0  0  0  0  0  0  0  0
  2  1  1  0
  3  2  2  0
  4  3  1  0
  5  4  2  0
  6  4  1  0
  7  6  2  0
  7  1  1  0
  8  7  1  0
  9  8  2  0
 10  9  1  0
 11 10  2  0
 11  6  1  0
 12 10  1  0
 13  9  1  0
 14 13  1  0
 15 14  1  0
 16 15  1  0
 17 16  1  0
 18 17  1  0
 18 13  1  0
 19  3  1  0
 20 19  2  0
 21 19  1  0
 23 22  1  0
 23  1  1  0
  2 24  1  0
  8 25  1  0
 11 26  1  0
 14 27  1  0
 14 28  1  0
 15 29  1  0
 15 30  1  0
 16 31  1  0
 16 32  1  0
 17 33  1  0
 17 34  1  0
 18 35  1  0
 18 36  1  0
 22 37  1  0
 22 38  1  0
 22 39  1  0
 23 40  1  0
 23 41  1  0
M  CHG  2  16   1  21  -1
M  END
>  <score>  (4) 
-7.517

$$$$
=
     RDKit          3D

 41 43  0  0  0  0  0  0  0  0999 V2000
    3.4210   69.7750   67.7370 N   0  0  0  0  0  0  0  0  0  0  0  0
    4.7380   70.1350   67.4830 C   0  0  0  0  0  0  0  0  0  0  0  0
    5.3720   70.0440   66.3100 C   0  0  0  0  0  0  0  0  0  0  0  0
    4.6300   69.5410   65.1510 C   0  0  0  0  0  0  0  0  0  0  0  0
    5.0820   69.4790   64.0130 O   0  0  0  0  0  0  0  0  0  0  0  0
    3.2230   69.1240   65.3930 C   0  0  0  0  0  0  0  0  0  0  0  0
    2.6450   69.2680   66.6730 C   0  0  0  0  0  0  0  0  0  0  0  0
    1.2970   68.8880   66.8100 C   0  0  0  0  0  0  0  0  0  0  0  0
    0.5320   68.3820   65.7370 C   0  0  0  0  0  0  0  0  0  0  0  0
    1.1710   68.2480   64.4920 C   0  0  0  0  0  0  0  0  0  0  0  0
    2.4940   68.6130   64.3130 C   0  0  0  0  0  0  0  0  0  0  0  0
    0.4960   67.7950   63.4250 F   0  0  0  0  0  0  0  0  0  0  0  0
   -0.8270   68.0540   65.9840 N   0  0  0  0  0  0  0  0  0  0  0  0
   -0.9510   67.2140   67.2080 C   0  0  0  0  0  0  0  0  0  0  0  0
   -2.4400   66.9410   67.5280 C   0  0  0  0  0  0  0  0  0  0  0  0
   -3.2700   67.1870   66.2930 N   0  0  0  0  0  4  0  0  0  0  0  0
   -3.2270   68.6310   65.8470 C   0  0  0  0  0  0  0  0  0  0  0  0
   -1.7860   69.1830   65.9430 C   0  0  0  0  0  0  0  0  0  0  0  0
    6.8230   70.4570   66.2430 C   0  0  0  0  0  0  0  0  0  0  0  0
    7.0670   71.4100   65.4440 O   0  0  0  0  0  0  0  0  0  0  0  0
    7.5910   69.8820   67.0640 O   0  0  0  0  0  1  0  0  0  0  0  0
    3.7680   70.8300   69.9400 C   0  0  0  0  0  0  0  0  0  0  0  0
    2.8610   69.9570   69.0830 C   0  0  0  0  0  0  0  0  0  0  0  0
    5.3157   70.5339   68.3298 H   0  0  0  0  0  0  0  0  0  0  0  0
    0.8189   68.9896   67.7955 H   0  0  0  0  0  0  0  0  0  0  0  0
    2.9699   68.5021   63.3275 H   0  0  0  0  0  0  0  0  0  0  0  0
   -0.4343   66.2568   67.0442 H   0  0  0  0  0  0  0  0  0  0  0  0
   -0.4970   67.7493   68.0549 H   0  0  0  0  0  0  0  0  0  0  0  0
   -2.5609   65.8960   67.8495 H   0  0  0  0  0  0  0  0  0  0  0  0
   -2.7720   67.6119   68.3340 H   0  0  0  0  0  0  0  0  0  0  0  0
   -2.9117   66.5946   65.5304 H   0  0  0  0  0  0  0  0  0  0  0  0
   -4.2479   66.9582   66.5215 H   0  0  0  0  0  0  0  0  0  0  0  0
   -3.5722   68.6987   64.8048 H   0  0  0  0  0  0  0  0  0  0  0  0
   -3.8809   69.2259   66.5016 H   0  0  0  0  0  0  0  0  0  0  0  0
   -1.5749   69.8119   65.0655 H   0  0  0  0  0  0  0  0  0  0  0  0
   -1.6837   69.7848   66.8581 H   0  0  0  0  0  0  0  0  0  0  0  0
    3.5659   70.6355   71.0036 H   0  0  0  0  0  0  0  0  0  0  0  0
    4.8195   70.5955   69.7177 H   0  0  0  0  0  0  0  0  0  0  0  0
    3.5738   71.8897   69.7177 H   0  0  0  0  0  0  0  0  0  0  0  0
    2.7513   68.9732   69.5627 H   0  0  0  0  0  0  0  0  0  0  0  0
    1.8835   70.4530   68.9909 H   0  0  0  0  0  0  0  0  0  0  0  0
  2  1  1  0
  3  2  2  0
  4  3  1  0
  5  4  2  0
  6  4  1  0
  7  6  2  0
  7  1  1  0
  8  7  1  0
  9  8  2  0
 10  9  1  0
 11 10  2  0
 11  6  1  0
 12 10  1  0
 13  9  1  0
 14 13  1  0
 15 14  1  0
 16 15  1  0
 17 16  1  0
 18 17  1  0
 18 13  1  0
 19  3  1  0
 20 19  2  0
 21 19  1  0
 23 22  1  0
 23  1  1  0
  2 24  1  0
  8 25  1  0
 11 26  1  0
 14 27  1  0
 14 28  1  0
 15 29  1  0
 15 30  1  0
 16 31  1  0
 16 32  1  0
 17 33  1  0
 17 34  1  0
 18 35  1  0
 18 36  1  0
 22 37  1  0
 22 38  1  0
 22 39  1  0
 23 40  1  0
 23 41  1  0
M  CHG  2  16   1  21  -1
M  END
>  <score>  (5) 
-7.175

$$$$
=
     RDKit          3D

 41 43  0  0  0  0  0  0  0  0999 V2000
    4.0040   69.2240   63.9260 N   0  0  0  0  0  0  0  0  0  0  0  0
    2.9200   68.9410   63.1060 C   0  0  0  0  0  0  0  0  0  0  0  0
    1.6490   68.7990   63.4940 C   0  0  0  0  0  0  0  0  0  0  0  0
    1.3260   68.9740   64.9130 C   0  0  0  0  0  0  0  0  0  0  0  0
    0.1910   68.9380   65.3740 O   0  0  0  0  0  0  0  0  0  0  0  0
    2.4680   69.2550   65.8230 C   0  0  0  0  0  0  0  0  0  0  0  0
    3.7760   69.3920   65.3080 C   0  0  0  0  0  0  0  0  0  0  0  0
    4.7940   69.6970   66.2310 C   0  0  0  0  0  0  0  0  0  0  0  0
    4.5520   69.8630   67.6120 C   0  0  0  0  0  0  0  0  0  0  0  0
    3.2310   69.6970   68.0620 C   0  0  0  0  0  0  0  0  0  0  0  0
    2.1980   69.4000   67.1890 C   0  0  0  0  0  0  0  0  0  0  0  0
    2.9270   69.8620   69.3590 F   0  0  0  0  0  0  0  0  0  0  0  0
    5.6520   70.1940   68.4460 N   0  0  0  0  0  0  0  0  0  0  0  0
    6.5290   71.2000   67.7850 C   0  0  0  0  0  0  0  0  0  0  0  0
    7.6710   71.6310   68.7360 C   0  0  0  0  0  0  0  0  0  0  0  0
    7.8330   70.5960   69.8210 N   0  0  0  0  0  4  0  0  0  0  0  0
    6.6120   70.4880   70.7050 C   0  0  0  0  0  0  0  0  0  0  0  0
    5.3230   70.5290   69.8520 C   0  0  0  0  0  0  0  0  0  0  0  0
    0.6130   68.4570   62.4500 C   0  0  0  0  0  0  0  0  0  0  0  0
   -0.1500   67.4920   62.7560 O   0  0  0  0  0  0  0  0  0  0  0  0
    0.5600   69.2380   61.4590 O   0  0  0  0  0  1  0  0  0  0  0  0
    5.6500   68.2290   62.3830 C   0  0  0  0  0  0  0  0  0  0  0  0
    5.3440   69.3710   63.3410 C   0  0  0  0  0  0  0  0  0  0  0  0
    3.1275   68.8221   62.0323 H   0  0  0  0  0  0  0  0  0  0  0  0
    5.8233   69.8110   65.8601 H   0  0  0  0  0  0  0  0  0  0  0  0
    1.1719   69.2788   67.5664 H   0  0  0  0  0  0  0  0  0  0  0  0
    6.9625   70.7600   66.8748 H   0  0  0  0  0  0  0  0  0  0  0  0
    5.9264   72.0839   67.5289 H   0  0  0  0  0  0  0  0  0  0  0  0
    8.6090   71.7180   68.1681 H   0  0  0  0  0  0  0  0  0  0  0  0
    7.4270   72.6037   69.1879 H   0  0  0  0  0  0  0  0  0  0  0  0
    8.0044   69.6805   69.3812 H   0  0  0  0  0  0  0  0  0  0  0  0
    8.6239   70.8854   70.4139 H   0  0  0  0  0  0  0  0  0  0  0  0
    6.6492   69.5390   71.2600 H   0  0  0  0  0  0  0  0  0  0  0  0
    6.6030   71.3358   71.4058 H   0  0  0  0  0  0  0  0  0  0  0  0
    4.6002   69.7982   70.2439 H   0  0  0  0  0  0  0  0  0  0  0  0
    4.8849   71.5370   69.8966 H   0  0  0  0  0  0  0  0  0  0  0  0
    5.8927   67.3232   62.9579 H   0  0  0  0  0  0  0  0  0  0  0  0
    4.7717   68.0367   61.7493 H   0  0  0  0  0  0  0  0  0  0  0  0
    6.5068   68.5016   61.7493 H   0  0  0  0  0  0  0  0  0  0  0  0
    6.0907   69.3726   64.1487 H   0  0  0  0  0  0  0  0  0  0  0  0
    5.3796   70.3170   62.7808 H   0  0  0  0  0  0  0  0  0  0  0  0
  2  1  1  0
  3  2  2  0
  4  3  1  0
  5  4  2  0
  6  4  1  0
  7  6  2  0
  7  1  1  0
  8  7  1  0
  9  8  2  0
 10  9  1  0
 11 10  2  0
 11  6  1  0
 12 10  1  0
 13  9  1  0
 14 13  1  0
 15 14  1  0
 16 15  1  0
 17 16  1  0
 18 17  1  0
 18 13  1  0
 19  3  1  0
 20 19  2  0
 21 19  1  0
 23 22  1  0
 23  1  1  0
  2 24  1  0
  8 25  1  0
 11 26  1  0
 14 27  1  0
 14 28  1  0
 15 29  1  0
 15 30  1  0
 16 31  1  0
 16 32  1  0
 17 33  1  0
 17 34  1  0
 18 35  1  0
 18 36  1  0
 22 37  1  0
 22 38  1  0
 22 39  1  0
 23 40  1  0
 23 41  1  0
M  CHG  2  16   1  21  -1
M  END
>  <score>  (6) 
-7.09

$$$$
=
     RDKit          3D

 41 43  0  0  0  0  0  0  0  0999 V2000
    1.1560   68.9840   66.4670 N   0  0  0  0  0  0  0  0  0  0  0  0
    0.3310   68.6570   65.4000 C   0  0  0  0  0  0  0  0  0  0  0  0
    0.6900   68.5790   64.1150 C   0  0  0  0  0  0  0  0  0  0  0  0
    2.0900   68.8370   63.7630 C   0  0  0  0  0  0  0  0  0  0  0  0
    2.5510   68.7270   62.6320 O   0  0  0  0  0  0  0  0  0  0  0  0
    2.9960   69.2130   64.8800 C   0  0  0  0  0  0  0  0  0  0  0  0
    2.5150   69.2600   66.2060 C   0  0  0  0  0  0  0  0  0  0  0  0
    3.4470   69.5860   67.2110 C   0  0  0  0  0  0  0  0  0  0  0  0
    4.8030   69.8600   66.9360 C   0  0  0  0  0  0  0  0  0  0  0  0
    5.2150   69.8120   65.5930 C   0  0  0  0  0  0  0  0  0  0  0  0
    4.3330   69.4920   64.5750 C   0  0  0  0  0  0  0  0  0  0  0  0
    6.4960   70.0400   65.2640 F   0  0  0  0  0  0  0  0  0  0  0  0
    5.6590   70.1530   68.0310 N   0  0  0  0  0  0  0  0  0  0  0  0
    6.7490   71.0770   67.6130 C   0  0  0  0  0  0  0  0  0  0  0  0
    7.6200   71.4710   68.8310 C   0  0  0  0  0  0  0  0  0  0  0  0
    7.4120   70.4690   69.9380 N   0  0  0  0  0  4  0  0  0  0  0  0
    5.9930   70.4690   70.4600 C   0  0  0  0  0  0  0  0  0  0  0  0
    4.9880   70.5590   69.2880 C   0  0  0  0  0  0  0  0  0  0  0  0
   -0.3660   68.2390   63.0920 C   0  0  0  0  0  0  0  0  0  0  0  0
   -1.5110   68.7290   63.3270 O   0  0  0  0  0  0  0  0  0  0  0  0
    0.0420   67.6060   62.0780 O   0  0  0  0  0  1  0  0  0  0  0  0
    0.4830   67.5970   68.3920 C   0  0  0  0  0  0  0  0  0  0  0  0
    0.6110   69.0060   67.8310 C   0  0  0  0  0  0  0  0  0  0  0  0
   -0.7216   68.4408   65.6350 H   0  0  0  0  0  0  0  0  0  0  0  0
    3.1024   69.6287   68.2548 H   0  0  0  0  0  0  0  0  0  0  0  0
    4.6812   69.4572   63.5321 H   0  0  0  0  0  0  0  0  0  0  0  0
    7.3797   70.5775   66.8629 H   0  0  0  0  0  0  0  0  0  0  0  0
    6.3013   71.9864   67.1856 H   0  0  0  0  0  0  0  0  0  0  0  0
    8.6800   71.4792   68.5373 H   0  0  0  0  0  0  0  0  0  0  0  0
    7.3309   72.4727   69.1818 H   0  0  0  0  0  0  0  0  0  0  0  0
    7.6316   69.5291   69.5784 H   0  0  0  0  0  0  0  0  0  0  0  0
    8.0322   70.7307   70.7176 H   0  0  0  0  0  0  0  0  0  0  0  0
    5.8132   69.5402   71.0213 H   0  0  0  0  0  0  0  0  0  0  0  0
    5.8543   71.3403   71.1170 H   0  0  0  0  0  0  0  0  0  0  0  0
    4.1370   69.8897   69.4823 H   0  0  0  0  0  0  0  0  0  0  0  0
    4.6261   71.5935   69.1934 H   0  0  0  0  0  0  0  0  0  0  0  0
    0.4867   67.6383   69.4912 H   0  0  0  0  0  0  0  0  0  0  0  0
   -0.4596   67.1485   68.0451 H   0  0  0  0  0  0  0  0  0  0  0  0
    1.3293   66.9859   68.0451 H   0  0  0  0  0  0  0  0  0  0  0  0
   -0.3827   69.4775   67.8134 H   0  0  0  0  0  0  0  0  0  0  0  0
    1.2981   69.5768   68.4729 H   0  0  0  0  0  0  0  0  0  0  0  0
  2  1  1  0
  3  2  2  0
  4  3  1  0
  5  4  2  0
  6  4  1  0
  7  6  2  0
  7  1  1  0
  8  7  1  0
  9  8  2  0
 10  9  1  0
 11 10  2  0
 11  6  1  0
 12 10  1  0
 13  9  1  0
 14 13  1  0
 15 14  1  0
 16 15  1  0
 17 16  1  0
 18 17  1  0
 18 13  1  0
 19  3  1  0
 20 19  2  0
 21 19  1  0
 23 22  1  0
 23  1  1  0
  2 24  1  0
  8 25  1  0
 11 26  1  0
 14 27  1  0
 14 28  1  0
 15 29  1  0
 15 30  1  0
 16 31  1  0
 16 32  1  0
 17 33  1  0
 17 34  1  0
 18 35  1  0
 18 36  1  0
 22 37  1  0
 22 38  1  0
 22 39  1  0
 23 40  1  0
 23 41  1  0
M  CHG  2  16   1  21  -1
M  END
>  <score>  (7) 
-7.061

$$$$
=
     RDKit          3D

 41 43  0  0  0  0  0  0  0  0999 V2000
   -0.4880   58.4590   74.2010 N   0  0  0  0  0  0  0  0  0  0  0  0
   -1.7590   58.3590   74.7530 C   0  0  0  0  0  0  0  0  0  0  0  0
   -2.6930   59.3140   74.7670 C   0  0  0  0  0  0  0  0  0  0  0  0
   -2.3920   60.5980   74.1290 C   0  0  0  0  0  0  0  0  0  0  0  0
   -3.1910   61.5210   74.0180 O   0  0  0  0  0  0  0  0  0  0  0  0
   -1.0310   60.7470   73.5480 C   0  0  0  0  0  0  0  0  0  0  0  0
   -0.1180   59.6700   73.5810 C   0  0  0  0  0  0  0  0  0  0  0  0
    1.1350   59.8800   72.9740 C   0  0  0  0  0  0  0  0  0  0  0  0
    1.4920   61.0970   72.3560 C   0  0  0  0  0  0  0  0  0  0  0  0
    0.5450   62.1350   72.3720 C   0  0  0  0  0  0  0  0  0  0  0  0
   -0.7010   61.9710   72.9540 C   0  0  0  0  0  0  0  0  0  0  0  0
    0.8110   63.3110   71.7830 F   0  0  0  0  0  0  0  0  0  0  0  0
    2.7750   61.1870   71.7540 N   0  0  0  0  0  0  0  0  0  0  0  0
    3.8440   61.1870   72.7920 C   0  0  0  0  0  0  0  0  0  0  0  0
    5.2420   61.1850   72.1270 C   0  0  0  0  0  0  0  0  0  0  0  0
    5.1170   61.6530   70.6990 N   0  0  0  0  0  4  0  0  0  0  0  0
    4.2850   60.7150   69.8550 C   0  0  0  0  0  0  0  0  0  0  0  0
    3.0350   60.2490   70.6370 C   0  0  0  0  0  0  0  0  0  0  0  0
   -4.0090   59.0230   75.4490 C   0  0  0  0  0  0  0  0  0  0  0  0
   -4.0020   59.1850   76.7060 O   0  0  0  0  0  0  0  0  0  0  0  0
   -4.9750   58.7640   74.6790 O   0  0  0  0  0  1  0  0  0  0  0  0
   -0.2070   56.0870   73.5860 C   0  0  0  0  0  0  0  0  0  0  0  0
    0.4200   57.3050   74.2480 C   0  0  0  0  0  0  0  0  0  0  0  0
   -2.0218   57.4004   75.2243 H   0  0  0  0  0  0  0  0  0  0  0  0
    1.8675   59.0594   72.9820 H   0  0  0  0  0  0  0  0  0  0  0  0
   -1.4269   62.7975   72.9496 H   0  0  0  0  0  0  0  0  0  0  0  0
    3.7416   62.0859   73.4177 H   0  0  0  0  0  0  0  0  0  0  0  0
    3.7415   60.2827   73.4098 H   0  0  0  0  0  0  0  0  0  0  0  0
    5.9116   61.8618   72.6779 H   0  0  0  0  0  0  0  0  0  0  0  0
    5.6565   60.1663   72.1453 H   0  0  0  0  0  0  0  0  0  0  0  0
    4.6746   62.5831   70.6934 H   0  0  0  0  0  0  0  0  0  0  0  0
    6.0638   61.6825   70.2946 H   0  0  0  0  0  0  0  0  0  0  0  0
    3.9664   61.2368   68.9406 H   0  0  0  0  0  0  0  0  0  0  0  0
    4.8922   59.8349   69.5968 H   0  0  0  0  0  0  0  0  0  0  0  0
    2.1659   60.2313   69.9629 H   0  0  0  0  0  0  0  0  0  0  0  0
    3.2078   59.2393   71.0379 H   0  0  0  0  0  0  0  0  0  0  0  0
   -0.5646   55.3923   74.3602 H   0  0  0  0  0  0  0  0  0  0  0  0
   -1.0534   56.4051   72.9596 H   0  0  0  0  0  0  0  0  0  0  0  0
    0.5437   55.5830   72.9596 H   0  0  0  0  0  0  0  0  0  0  0  0
    0.6447   57.0672   75.2982 H   0  0  0  0  0  0  0  0  0  0  0  0
    1.3408   57.5628   73.7043 H   0  0  0  0  0  0  0  0  0  0  0  0
  2  1  1  0
  3  2  2  0
  4  3  1  0
  5  4  2  0
  6  4  1  0
  7  6  2  0
  7  1  1  0
  8  7  1  0
  9  8  2  0
 10  9  1  0
 11 10  2  0
 11  6  1  0
 12 10  1  0
 13  9  1  0
 14 13  1  0
 15 14  1  0
 16 15  1  0
 17 16  1  0
 18 17  1  0
 18 13  1  0
 19  3  1  0
 20 19  2  0
 21 19  1  0
 23 22  1  0
 23  1  1  0
  2 24  1  0
  8 25  1  0
 11 26  1  0
 14 27  1  0
 14 28  1  0
 15 29  1  0
 15 30  1  0
 16 31  1  0
 16 32  1  0
 17 33  1  0
 17 34  1  0
 18 35  1  0
 18 36  1  0
 22 37  1  0
 22 38  1  0
 22 39  1  0
 23 40  1  0
 23 41  1  0
M  CHG  2  16   1  21  -1
M  END
>  <score>  (8) 
-6.848

$$$$
=
     RDKit          3D

 41 43  0  0  0  0  0  0  0  0999 V2000
   -0.2680   59.4500   74.1810 N   0  0  0  0  0  0  0  0  0  0  0  0
   -0.7380   58.3230   74.8440 C   0  0  0  0  0  0  0  0  0  0  0  0
   -0.2740   57.0770   74.7140 C   0  0  0  0  0  0  0  0  0  0  0  0
    0.8550   56.8410   73.8090 C   0  0  0  0  0  0  0  0  0  0  0  0
    1.4090   55.7570   73.6620 O   0  0  0  0  0  0  0  0  0  0  0  0
    1.3680   58.0220   73.0660 C   0  0  0  0  0  0  0  0  0  0  0  0
    0.8090   59.3010   73.2820 C   0  0  0  0  0  0  0  0  0  0  0  0
    1.3780   60.3730   72.5690 C   0  0  0  0  0  0  0  0  0  0  0  0
    2.4560   60.2100   71.6730 C   0  0  0  0  0  0  0  0  0  0  0  0
    2.9560   58.9090   71.4910 C   0  0  0  0  0  0  0  0  0  0  0  0
    2.4280   57.8270   72.1740 C   0  0  0  0  0  0  0  0  0  0  0  0
    3.9940   58.6870   70.6700 F   0  0  0  0  0  0  0  0  0  0  0  0
    2.9660   61.3670   71.0270 N   0  0  0  0  0  0  0  0  0  0  0  0
    1.9060   62.4060   70.8960 C   0  0  0  0  0  0  0  0  0  0  0  0
    2.4920   63.7000   70.2810 C   0  0  0  0  0  0  0  0  0  0  0  0
    3.7880   63.3790   69.5820 N   0  0  0  0  0  4  0  0  0  0  0  0
    4.8530   62.8860   70.5350 C   0  0  0  0  0  0  0  0  0  0  0  0
    4.2480   61.8930   71.5540 C   0  0  0  0  0  0  0  0  0  0  0  0
   -0.9430   55.9750   75.4990 C   0  0  0  0  0  0  0  0  0  0  0  0
   -0.7090   55.9930   76.7440 O   0  0  0  0  0  0  0  0  0  0  0  0
   -1.7360   55.2430   74.8430 O   0  0  0  0  0  1  0  0  0  0  0  0
   -2.1450   60.9540   73.6370 C   0  0  0  0  0  0  0  0  0  0  0  0
   -0.8740   60.7610   74.4510 C   0  0  0  0  0  0  0  0  0  0  0  0
   -1.5735   58.4712   75.5441 H   0  0  0  0  0  0  0  0  0  0  0  0
    0.9644   61.3816   72.7166 H   0  0  0  0  0  0  0  0  0  0  0  0
    2.8396   56.8192   72.0163 H   0  0  0  0  0  0  0  0  0  0  0  0
    1.1045   62.0261   70.2453 H   0  0  0  0  0  0  0  0  0  0  0  0
    1.5055   62.6351   71.8946 H   0  0  0  0  0  0  0  0  0  0  0  0
    1.7778   64.1181   69.5563 H   0  0  0  0  0  0  0  0  0  0  0  0
    2.6765   64.4351   71.0782 H   0  0  0  0  0  0  0  0  0  0  0  0
    3.6113   62.6486   68.8776 H   0  0  0  0  0  0  0  0  0  0  0  0
    4.1333   64.2473   69.1487 H   0  0  0  0  0  0  0  0  0  0  0  0
    5.6451   62.3805   69.9630 H   0  0  0  0  0  0  0  0  0  0  0  0
    5.2696   63.7461   71.0797 H   0  0  0  0  0  0  0  0  0  0  0  0
    4.9481   61.0600   71.7148 H   0  0  0  0  0  0  0  0  0  0  0  0
    4.0687   62.4095   72.5085 H   0  0  0  0  0  0  0  0  0  0  0  0
   -2.9998   61.0838   74.3171 H   0  0  0  0  0  0  0  0  0  0  0  0
   -2.0422   61.8468   73.0027 H   0  0  0  0  0  0  0  0  0  0  0  0
   -2.3119   60.0709   73.0027 H   0  0  0  0  0  0  0  0  0  0  0  0
   -0.1549   61.5505   74.1873 H   0  0  0  0  0  0  0  0  0  0  0  0
   -1.1313   60.8141   75.5192 H   0  0  0  0  0  0  0  0  0  0  0  0
  2  1  1  0
  3  2  2  0
  4  3  1  0
  5  4  2  0
  6  4  1  0
  7  6  2  0
  7  1  1  0
  8  7  1  0
  9  8  2  0
 10  9  1  0
 11 10  2  0
 11  6  1  0
 12 10  1  0
 13  9  1  0
 14 13  1  0
 15 14  1  0
 16 15  1  0
 17 16  1  0
 18 17  1  0
 18 13  1  0
 19  3  1  0
 20 19  2  0
 21 19  1  0
 23 22  1  0
 23  1  1  0
  2 24  1  0
  8 25  1  0
 11 26  1  0
 14 27  1  0
 14 28  1  0
 15 29  1  0
 15 30  1  0
 16 31  1  0
 16 32  1  0
 17 33  1  0
 17 34  1  0
 18 35  1  0
 18 36  1  0
 22 37  1  0
 22 38  1  0
 22 39  1  0
 23 40  1  0
 23 41  1  0
M  CHG  2  16   1  21  -1
M  END
>  <score>  (9) 
-6.769

$$$$
