=
     RDKit          3D

 44 45  0  0  0  0  0  0  0  0999 V2000
    3.0590   69.3050   66.1730 C   0  0  0  0  0  0  0  0  0  0  0  0
    2.2720   69.2310   67.2700 C   0  0  0  0  0  0  0  0  0  0  0  0
    2.7510   69.4330   68.6830 C   0  0  0  0  0  0  0  0  0  0  0  0
    0.9150   68.9900   67.1190 N   0  0  0  0  0  0  0  0  0  0  0  0
    0.2680   68.8410   65.9010 C   0  0  0  0  0  0  0  0  0  0  0  0
    0.9860   68.9000   64.7550 C   0  0  0  0  0  0  0  0  0  0  0  0
    2.4900   69.1440   64.7690 C   0  0  2  0  0  0  0  0  0  0  0  0
   -1.2270   68.6710   65.9690 C   0  0  0  0  0  0  0  0  0  0  0  0
    3.2690   68.1160   63.9310 C   0  0  0  0  0  0  0  0  0  0  0  0
    3.9380   68.6010   62.7850 C   0  0  0  0  0  0  0  0  0  0  0  0
    4.6820   67.7550   61.9640 C   0  0  0  0  0  0  0  0  0  0  0  0
    4.7770   66.4030   62.2690 C   0  0  0  0  0  0  0  0  0  0  0  0
    4.1260   65.8940   63.3950 C   0  0  0  0  0  0  0  0  0  0  0  0
    3.3700   66.7380   64.2310 C   0  0  0  0  0  0  0  0  0  0  0  0
    2.5740   66.0670   65.6190 Cl  0  0  0  0  0  0  0  0  0  0  0  0
    4.3030   64.1960   63.6970 Cl  0  0  0  0  0  0  0  0  0  0  0  0
    4.5080   69.5820   66.2300 C   0  0  0  0  0  0  0  0  0  0  0  0
    5.3460   68.8900   65.6740 O   0  0  0  0  0  0  0  0  0  0  0  0
    4.7410   70.6270   67.0620 O   0  0  0  0  0  0  0  0  0  0  0  0
    6.3730   70.9220   68.8200 C   0  0  0  0  0  0  0  0  0  0  0  0
    6.1200   70.9170   67.3230 C   0  0  0  0  0  0  0  0  0  0  0  0
    0.3820   68.7920   63.4120 C   0  0  0  0  0  0  0  0  0  0  0  0
   -0.0200   67.7400   62.9400 O   0  0  0  0  0  0  0  0  0  0  0  0
    0.2740   70.0180   62.8460 O   0  0  0  0  0  0  0  0  0  0  0  0
    0.0280   69.9880   61.4400 C   0  0  0  0  0  0  0  0  0  0  0  0
    1.9708   69.1040   69.3852 H   0  0  0  0  0  0  0  0  0  0  0  0
    3.6651   68.8437   68.8481 H   0  0  0  0  0  0  0  0  0  0  0  0
    2.9671   70.4989   68.8481 H   0  0  0  0  0  0  0  0  0  0  0  0
    0.3454   68.9162   67.9740 H   0  0  0  0  0  0  0  0  0  0  0  0
    2.6340   70.1160   64.2746 H   0  0  0  0  0  0  0  0  0  0  0  0
   -1.5444   68.6349   67.0216 H   0  0  0  0  0  0  0  0  0  0  0  0
   -1.7157   69.5194   65.4675 H   0  0  0  0  0  0  0  0  0  0  0  0
   -1.5127   67.7346   65.4675 H   0  0  0  0  0  0  0  0  0  0  0  0
    3.8703   69.6701   62.5350 H   0  0  0  0  0  0  0  0  0  0  0  0
    5.1927   68.1571   61.0766 H   0  0  0  0  0  0  0  0  0  0  0  0
    5.3648   65.7335   61.6238 H   0  0  0  0  0  0  0  0  0  0  0  0
    5.4117   70.9030   69.3544 H   0  0  0  0  0  0  0  0  0  0  0  0
    6.9630   70.0353   69.0951 H   0  0  0  0  0  0  0  0  0  0  0  0
    6.9275   71.8313   69.0951 H   0  0  0  0  0  0  0  0  0  0  0  0
    6.7500   70.1498   66.8492 H   0  0  0  0  0  0  0  0  0  0  0  0
    6.3660   71.9068   66.9110 H   0  0  0  0  0  0  0  0  0  0  0  0
   -1.0490   69.8567   61.2589 H   0  0  0  0  0  0  0  0  0  0  0  0
    0.3630   70.9337   60.9889 H   0  0  0  0  0  0  0  0  0  0  0  0
    0.5805   69.1506   60.9889 H   0  0  0  0  0  0  0  0  0  0  0  0
  2  1  2  0
  3  2  1  0
  4  2  1  0
  5  4  1  0
  6  5  2  0
  7  6  1  0
  7  1  1  0
  8  5  1  0
  9  7  1  0
 10  9  2  0
 11 10  1  0
 12 11  2  0
 13 12  1  0
 14 13  2  0
 14  9  1  0
 15 14  1  0
 16 13  1  0
 17  1  1  0
 18 17  2  0
 19 17  1  0
 21 19  1  0
 21 20  1  0
 22  6  1  0
 23 22  2  0
 24 22  1  0
 25 24  1  0
  3 26  1  0
  3 27  1  0
  3 28  1  0
  4 29  1  0
  7 30  1  6
  8 31  1  0
  8 32  1  0
  8 33  1  0
 10 34  1  0
 11 35  1  0
 12 36  1  0
 20 37  1  0
 20 38  1  0
 20 39  1  0
 21 40  1  0
 21 41  1  0
 25 42  1  0
 25 43  1  0
 25 44  1  0
M  END
>  <score>  (1) 
-8.897

$$$$
=
     RDKit          3D

 44 45  0  0  0  0  0  0  0  0999 V2000
    2.4830   68.4180   65.0630 C   0  0  0  0  0  0  0  0  0  0  0  0
    3.7820   68.3760   64.6920 C   0  0  0  0  0  0  0  0  0  0  0  0
    4.2850   67.7970   63.3960 C   0  0  0  0  0  0  0  0  0  0  0  0
    4.7450   68.9290   65.5230 N   0  0  0  0  0  0  0  0  0  0  0  0
    4.4810   69.5670   66.7260 C   0  0  0  0  0  0  0  0  0  0  0  0
    3.2050   69.6490   67.1690 C   0  0  0  0  0  0  0  0  0  0  0  0
    2.0450   69.0720   66.3680 C   0  0  2  0  0  0  0  0  0  0  0  0
    5.6720   70.1690   67.4240 C   0  0  0  0  0  0  0  0  0  0  0  0
    1.1340   68.1600   67.2080 C   0  0  0  0  0  0  0  0  0  0  0  0
    1.7650   67.3320   68.1640 C   0  0  0  0  0  0  0  0  0  0  0  0
    1.0300   66.4770   68.9840 C   0  0  0  0  0  0  0  0  0  0  0  0
   -0.3540   66.4300   68.8700 C   0  0  0  0  0  0  0  0  0  0  0  0
   -1.0060   67.2360   67.9340 C   0  0  0  0  0  0  0  0  0  0  0  0
   -0.2740   68.1010   67.0990 C   0  0  0  0  0  0  0  0  0  0  0  0
   -1.1200   69.0850   65.9460 Cl  0  0  0  0  0  0  0  0  0  0  0  0
   -2.7330   67.1110   67.8650 Cl  0  0  0  0  0  0  0  0  0  0  0  0
    1.3840   67.8790   64.2370 C   0  0  0  0  0  0  0  0  0  0  0  0
    1.1130   66.6910   64.1730 O   0  0  0  0  0  0  0  0  0  0  0  0
    0.8260   68.8790   63.5110 O   0  0  0  0  0  0  0  0  0  0  0  0
    0.1690   69.8600   61.4020 C   0  0  0  0  0  0  0  0  0  0  0  0
    0.9720   68.7700   62.0890 C   0  0  0  0  0  0  0  0  0  0  0  0
    2.8210   70.3410   68.4160 C   0  0  0  0  0  0  0  0  0  0  0  0
    1.8740   71.1090   68.4920 O   0  0  0  0  0  0  0  0  0  0  0  0
    3.6070   69.9320   69.4410 O   0  0  0  0  0  0  0  0  0  0  0  0
    4.4050   70.9700   70.0090 C   0  0  0  0  0  0  0  0  0  0  0  0
    4.9928   66.9823   63.6086 H   0  0  0  0  0  0  0  0  0  0  0  0
    3.4368   67.4039   62.8164 H   0  0  0  0  0  0  0  0  0  0  0  0
    4.7928   68.5819   62.8164 H   0  0  0  0  0  0  0  0  0  0  0  0
    5.7286   68.8609   65.2249 H   0  0  0  0  0  0  0  0  0  0  0  0
    1.4305   69.9370   66.0781 H   0  0  0  0  0  0  0  0  0  0  0  0
    5.5330   70.0987   68.5129 H   0  0  0  0  0  0  0  0  0  0  0  0
    6.5816   69.6224   67.1345 H   0  0  0  0  0  0  0  0  0  0  0  0
    5.7713   71.2256   67.1345 H   0  0  0  0  0  0  0  0  0  0  0  0
    2.8601   67.3629   68.2632 H   0  0  0  0  0  0  0  0  0  0  0  0
    1.5445   65.8411   69.7195 H   0  0  0  0  0  0  0  0  0  0  0  0
   -0.9364   65.7577   69.5172 H   0  0  0  0  0  0  0  0  0  0  0  0
   -0.3033   70.5011   62.1609 H   0  0  0  0  0  0  0  0  0  0  0  0
    0.8373   70.4670   60.7737 H   0  0  0  0  0  0  0  0  0  0  0  0
   -0.6089   69.4016   60.7737 H   0  0  0  0  0  0  0  0  0  0  0  0
    2.0339   68.8761   61.8222 H   0  0  0  0  0  0  0  0  0  0  0  0
    0.6027   67.7870   61.7613 H   0  0  0  0  0  0  0  0  0  0  0  0
    4.3585   70.9095   71.1063 H   0  0  0  0  0  0  0  0  0  0  0  0
    5.4478   70.8529   69.6792 H   0  0  0  0  0  0  0  0  0  0  0  0
    4.0238   71.9477   69.6792 H   0  0  0  0  0  0  0  0  0  0  0  0
  2  1  2  0
  3  2  1  0
  4  2  1  0
  5  4  1  0
  6  5  2  0
  7  6  1  0
  7  1  1  0
  8  5  1  0
  9  7  1  0
 10  9  2  0
 11 10  1  0
 12 11  2  0
 13 12  1  0
 14 13  2  0
 14  9  1  0
 15 14  1  0
 16 13  1  0
 17  1  1  0
 18 17  2  0
 19 17  1  0
 21 19  1  0
 21 20  1  0
 22  6  1  0
 23 22  2  0
 24 22  1  0
 25 24  1  0
  3 26  1  0
  3 27  1  0
  3 28  1  0
  4 29  1  0
  7 30  1  6
  8 31  1  0
  8 32  1  0
  8 33  1  0
 10 34  1  0
 11 35  1  0
 12 36  1  0
 20 37  1  0
 20 38  1  0
 20 39  1  0
 21 40  1  0
 21 41  1  0
 25 42  1  0
 25 43  1  0
 25 44  1  0
M  END
>  <score>  (2) 
-7.828

$$$$
=
     RDKit          3D

 44 45  0  0  0  0  0  0  0  0999 V2000
    2.2460   67.2510   66.0990 C   0  0  0  0  0  0  0  0  0  0  0  0
    1.3440   67.7040   66.9980 C   0  0  0  0  0  0  0  0  0  0  0  0
    0.0530   67.0090   67.3420 C   0  0  0  0  0  0  0  0  0  0  0  0
    1.6100   68.8700   67.7000 N   0  0  0  0  0  0  0  0  0  0  0  0
    2.7700   69.6210   67.5770 C   0  0  0  0  0  0  0  0  0  0  0  0
    3.7210   69.2350   66.6960 C   0  0  0  0  0  0  0  0  0  0  0  0
    3.5580   67.9820   65.8450 C   0  0  2  0  0  0  0  0  0  0  0  0
    2.8850   70.8070   68.4990 C   0  0  0  0  0  0  0  0  0  0  0  0
    3.8110   68.2380   64.3490 C   0  0  0  0  0  0  0  0  0  0  0  0
    5.1130   67.9780   63.8670 C   0  0  0  0  0  0  0  0  0  0  0  0
    5.4440   68.1670   62.5260 C   0  0  0  0  0  0  0  0  0  0  0  0
    4.4800   68.6180   61.6330 C   0  0  0  0  0  0  0  0  0  0  0  0
    3.1840   68.8840   62.0800 C   0  0  0  0  0  0  0  0  0  0  0  0
    2.8390   68.7000   63.4320 C   0  0  0  0  0  0  0  0  0  0  0  0
    1.2190   69.0440   63.9500 Cl  0  0  0  0  0  0  0  0  0  0  0  0
    2.0500   69.4410   60.8940 Cl  0  0  0  0  0  0  0  0  0  0  0  0
    2.0650   66.0080   65.3230 C   0  0  0  0  0  0  0  0  0  0  0  0
    1.1120   65.8100   64.5860 O   0  0  0  0  0  0  0  0  0  0  0  0
    3.0410   65.1230   65.6420 O   0  0  0  0  0  0  0  0  0  0  0  0
    4.8190   64.3810   64.1830 C   0  0  0  0  0  0  0  0  0  0  0  0
    3.3800   64.1770   64.6200 C   0  0  0  0  0  0  0  0  0  0  0  0
    5.0040   69.9470   66.5210 C   0  0  0  0  0  0  0  0  0  0  0  0
    5.2610   70.6370   65.5470 O   0  0  0  0  0  0  0  0  0  0  0  0
    5.7840   69.7830   67.6170 O   0  0  0  0  0  0  0  0  0  0  0  0
    6.5730   70.9270   67.9420 C   0  0  0  0  0  0  0  0  0  0  0  0
   -0.0527   66.9521   68.4354 H   0  0  0  0  0  0  0  0  0  0  0  0
   -0.7914   67.5745   66.9209 H   0  0  0  0  0  0  0  0  0  0  0  0
    0.0601   65.9928   66.9209 H   0  0  0  0  0  0  0  0  0  0  0  0
    0.8938   69.2029   68.3612 H   0  0  0  0  0  0  0  0  0  0  0  0
    4.3519   67.2970   66.1773 H   0  0  0  0  0  0  0  0  0  0  0  0
    2.8517   70.4639   69.5436 H   0  0  0  0  0  0  0  0  0  0  0  0
    3.8376   71.3248   68.3133 H   0  0  0  0  0  0  0  0  0  0  0  0
    2.0497   71.4982   68.3133 H   0  0  0  0  0  0  0  0  0  0  0  0
    5.8830   67.6183   64.5654 H   0  0  0  0  0  0  0  0  0  0  0  0
    6.4659   67.9595   62.1758 H   0  0  0  0  0  0  0  0  0  0  0  0
    4.7376   68.7656   60.5738 H   0  0  0  0  0  0  0  0  0  0  0  0
    5.4623   64.4722   65.0706 H   0  0  0  0  0  0  0  0  0  0  0  0
    5.1449   63.5201   63.5808 H   0  0  0  0  0  0  0  0  0  0  0  0
    4.8928   65.2986   63.5808 H   0  0  0  0  0  0  0  0  0  0  0  0
    3.2595   63.1567   65.0131 H   0  0  0  0  0  0  0  0  0  0  0  0
    2.7152   64.3239   63.7560 H   0  0  0  0  0  0  0  0  0  0  0  0
    6.6416   71.0265   69.0353 H   0  0  0  0  0  0  0  0  0  0  0  0
    7.5821   70.8082   67.5206 H   0  0  0  0  0  0  0  0  0  0  0  0
    6.1034   71.8280   67.5206 H   0  0  0  0  0  0  0  0  0  0  0  0
  2  1  2  0
  3  2  1  0
  4  2  1  0
  5  4  1  0
  6  5  2  0
  7  6  1  0
  7  1  1  0
  8  5  1  0
  9  7  1  0
 10  9  2  0
 11 10  1  0
 12 11  2  0
 13 12  1  0
 14 13  2  0
 14  9  1  0
 15 14  1  0
 16 13  1  0
 17  1  1  0
 18 17  2  0
 19 17  1  0
 21 19  1  0
 21 20  1  0
 22  6  1  0
 23 22  2  0
 24 22  1  0
 25 24  1  0
  3 26  1  0
  3 27  1  0
  3 28  1  0
  4 29  1  0
  7 30  1  1
  8 31  1  0
  8 32  1  0
  8 33  1  0
 10 34  1  0
 11 35  1  0
 12 36  1  0
 20 37  1  0
 20 38  1  0
 20 39  1  0
 21 40  1  0
 21 41  1  0
 25 42  1  0
 25 43  1  0
 25 44  1  0
M  END
>  <score>  (3) 
-7.793

$$$$
=
     RDKit          3D

 44 45  0  0  0  0  0  0  0  0999 V2000
    2.8570   67.1950   63.5700 C   0  0  0  0  0  0  0  0  0  0  0  0
    3.2040   67.7730   62.3980 C   0  0  0  0  0  0  0  0  0  0  0  0
    4.4710   67.4800   61.6400 C   0  0  0  0  0  0  0  0  0  0  0  0
    2.3370   68.6770   61.8030 N   0  0  0  0  0  0  0  0  0  0  0  0
    1.0930   69.0300   62.3070 C   0  0  0  0  0  0  0  0  0  0  0  0
    0.6750   68.4980   63.4780 C   0  0  0  0  0  0  0  0  0  0  0  0
    1.5300   67.5010   64.2510 C   0  0  2  0  0  0  0  0  0  0  0  0
    0.2820   69.9680   61.4520 C   0  0  0  0  0  0  0  0  0  0  0  0
    1.7000   67.8830   65.7320 C   0  0  0  0  0  0  0  0  0  0  0  0
    0.8640   67.2250   66.6620 C   0  0  0  0  0  0  0  0  0  0  0  0
    0.9460   67.4890   68.0280 C   0  0  0  0  0  0  0  0  0  0  0  0
    1.8660   68.4160   68.4990 C   0  0  0  0  0  0  0  0  0  0  0  0
    2.7060   69.0840   67.6040 C   0  0  0  0  0  0  0  0  0  0  0  0
    2.6310   68.8270   66.2220 C   0  0  0  0  0  0  0  0  0  0  0  0
    3.6890   69.6780   65.1410 Cl  0  0  0  0  0  0  0  0  0  0  0  0
    3.8230   70.2210   68.2830 Cl  0  0  0  0  0  0  0  0  0  0  0  0
    3.7010   66.2030   64.2670 C   0  0  0  0  0  0  0  0  0  0  0  0
    4.8380   66.4370   64.6450 O   0  0  0  0  0  0  0  0  0  0  0  0
    3.0600   65.0100   64.3130 O   0  0  0  0  0  0  0  0  0  0  0  0
    4.7640   63.3590   63.8490 C   0  0  0  0  0  0  0  0  0  0  0  0
    3.8050   63.9260   64.8810 C   0  0  0  0  0  0  0  0  0  0  0  0
   -0.6460   68.7830   64.0750 C   0  0  0  0  0  0  0  0  0  0  0  0
   -1.7020   68.4690   63.5470 O   0  0  0  0  0  0  0  0  0  0  0  0
   -0.4970   69.3500   65.2960 O   0  0  0  0  0  0  0  0  0  0  0  0
   -1.6570   69.2600   66.1220 C   0  0  0  0  0  0  0  0  0  0  0  0
    5.2885   67.2910   62.3514 H   0  0  0  0  0  0  0  0  0  0  0  0
    4.3229   66.5924   61.0074 H   0  0  0  0  0  0  0  0  0  0  0  0
    4.7276   68.3425   61.0074 H   0  0  0  0  0  0  0  0  0  0  0  0
    2.6383   69.1188   60.9227 H   0  0  0  0  0  0  0  0  0  0  0  0
    0.9640   66.5579   64.2404 H   0  0  0  0  0  0  0  0  0  0  0  0
   -0.3005   70.6417   62.0977 H   0  0  0  0  0  0  0  0  0  0  0  0
    0.9565   70.5611   60.8170 H   0  0  0  0  0  0  0  0  0  0  0  0
   -0.4023   69.3863   60.8170 H   0  0  0  0  0  0  0  0  0  0  0  0
    0.1322   66.4880   66.2997 H   0  0  0  0  0  0  0  0  0  0  0  0
    0.2832   66.9640   68.7315 H   0  0  0  0  0  0  0  0  0  0  0  0
    1.9337   68.6247   69.5769 H   0  0  0  0  0  0  0  0  0  0  0  0
    5.6022   62.8634   64.3607 H   0  0  0  0  0  0  0  0  0  0  0  0
    4.2351   62.6283   63.2194 H   0  0  0  0  0  0  0  0  0  0  0  0
    5.1493   64.1746   63.2194 H   0  0  0  0  0  0  0  0  0  0  0  0
    4.3761   64.2908   65.7475 H   0  0  0  0  0  0  0  0  0  0  0  0
    3.1085   63.1364   65.1994 H   0  0  0  0  0  0  0  0  0  0  0  0
   -1.3565   69.2833   67.1799 H   0  0  0  0  0  0  0  0  0  0  0  0
   -2.3238   70.1091   65.9114 H   0  0  0  0  0  0  0  0  0  0  0  0
   -2.1849   68.3182   65.9114 H   0  0  0  0  0  0  0  0  0  0  0  0
  2  1  2  0
  3  2  1  0
  4  2  1  0
  5  4  1  0
  6  5  2  0
  7  6  1  0
  7  1  1  0
  8  5  1  0
  9  7  1  0
 10  9  2  0
 11 10  1  0
 12 11  2  0
 13 12  1  0
 14 13  2  0
 14  9  1  0
 15 14  1  0
 16 13  1  0
 17  1  1  0
 18 17  2  0
 19 17  1  0
 21 19  1  0
 21 20  1  0
 22  6  1  0
 23 22  2  0
 24 22  1  0
 25 24  1  0
  3 26  1  0
  3 27  1  0
  3 28  1  0
  4 29  1  0
  7 30  1  1
  8 31  1  0
  8 32  1  0
  8 33  1  0
 10 34  1  0
 11 35  1  0
 12 36  1  0
 20 37  1  0
 20 38  1  0
 20 39  1  0
 21 40  1  0
 21 41  1  0
 25 42  1  0
 25 43  1  0
 25 44  1  0
M  END
>  <score>  (4) 
-7.66

$$$$
=
     RDKit          3D

 44 45  0  0  0  0  0  0  0  0999 V2000
    1.0420   63.1340   72.8790 C   0  0  0  0  0  0  0  0  0  0  0  0
    0.8880   63.8260   71.7270 C   0  0  0  0  0  0  0  0  0  0  0  0
    0.1490   65.1320   71.6040 C   0  0  0  0  0  0  0  0  0  0  0  0
    1.4700   63.3470   70.5630 N   0  0  0  0  0  0  0  0  0  0  0  0
    2.2450   62.1990   70.4800 C   0  0  0  0  0  0  0  0  0  0  0  0
    2.4440   61.4490   71.5880 C   0  0  0  0  0  0  0  0  0  0  0  0
    1.8510   61.8450   72.9350 C   0  0  2  0  0  0  0  0  0  0  0  0
    2.8500   61.9120   69.1300 C   0  0  0  0  0  0  0  0  0  0  0  0
    1.0840   60.6950   73.6110 C   0  0  0  0  0  0  0  0  0  0  0  0
   -0.2090   60.4120   73.1190 C   0  0  0  0  0  0  0  0  0  0  0  0
   -0.9830   59.3840   73.6550 C   0  0  0  0  0  0  0  0  0  0  0  0
   -0.4820   58.6110   74.6950 C   0  0  0  0  0  0  0  0  0  0  0  0
    0.7940   58.8670   75.2030 C   0  0  0  0  0  0  0  0  0  0  0  0
    1.5830   59.9050   74.6720 C   0  0  0  0  0  0  0  0  0  0  0  0
    3.1620   60.1940   75.3330 Cl  0  0  0  0  0  0  0  0  0  0  0  0
    1.3350   57.8510   76.4990 Cl  0  0  0  0  0  0  0  0  0  0  0  0
    0.4810   63.5750   74.1710 C   0  0  0  0  0  0  0  0  0  0  0  0
   -0.7140   63.7200   74.3700 O   0  0  0  0  0  0  0  0  0  0  0  0
    1.4880   63.8800   75.0260 O   0  0  0  0  0  0  0  0  0  0  0  0
    1.0750   62.6630   77.0720 C   0  0  0  0  0  0  0  0  0  0  0  0
    1.1140   64.0240   76.4020 C   0  0  0  0  0  0  0  0  0  0  0  0
    3.2830   60.2330   71.6080 C   0  0  0  0  0  0  0  0  0  0  0  0
    2.9650   59.1900   71.0570 O   0  0  0  0  0  0  0  0  0  0  0  0
    4.4560   60.4830   72.2390 O   0  0  0  0  0  0  0  0  0  0  0  0
    5.5270   60.8200   71.3570 C   0  0  0  0  0  0  0  0  0  0  0  0
   -0.0727   65.5238   72.6077 H   0  0  0  0  0  0  0  0  0  0  0  0
    0.7716   65.8555   71.0572 H   0  0  0  0  0  0  0  0  0  0  0  0
   -0.7918   64.9709   71.0572 H   0  0  0  0  0  0  0  0  0  0  0  0
    1.3157   63.8825   69.6968 H   0  0  0  0  0  0  0  0  0  0  0  0
    2.7133   62.0614   73.5828 H   0  0  0  0  0  0  0  0  0  0  0  0
    3.8366   61.4440   69.2624 H   0  0  0  0  0  0  0  0  0  0  0  0
    2.1926   61.2298   68.5711 H   0  0  0  0  0  0  0  0  0  0  0  0
    2.9624   62.8527   68.5711 H   0  0  0  0  0  0  0  0  0  0  0  0
   -0.6146   61.0164   72.2942 H   0  0  0  0  0  0  0  0  0  0  0  0
   -1.9884   59.1852   73.2553 H   0  0  0  0  0  0  0  0  0  0  0  0
   -1.0898   57.7977   75.1183 H   0  0  0  0  0  0  0  0  0  0  0  0
    1.0787   62.7919   78.1644 H   0  0  0  0  0  0  0  0  0  0  0  0
    0.1612   62.1310   76.7686 H   0  0  0  0  0  0  0  0  0  0  0  0
    1.9568   62.0796   76.7686 H   0  0  0  0  0  0  0  0  0  0  0  0
    1.8488   64.6620   76.9148 H   0  0  0  0  0  0  0  0  0  0  0  0
    0.1168   64.4847   76.4598 H   0  0  0  0  0  0  0  0  0  0  0  0
    6.4132   61.0988   71.9460 H   0  0  0  0  0  0  0  0  0  0  0  0
    5.7661   59.9537   70.7227 H   0  0  0  0  0  0  0  0  0  0  0  0
    5.2269   61.6671   70.7227 H   0  0  0  0  0  0  0  0  0  0  0  0
  2  1  2  0
  3  2  1  0
  4  2  1  0
  5  4  1  0
  6  5  2  0
  7  6  1  0
  7  1  1  0
  8  5  1  0
  9  7  1  0
 10  9  2  0
 11 10  1  0
 12 11  2  0
 13 12  1  0
 14 13  2  0
 14  9  1  0
 15 14  1  0
 16 13  1  0
 17  1  1  0
 18 17  2  0
 19 17  1  0
 21 19  1  0
 21 20  1  0
 22  6  1  0
 23 22  2  0
 24 22  1  0
 25 24  1  0
  3 26  1  0
  3 27  1  0
  3 28  1  0
  4 29  1  0
  7 30  1  1
  8 31  1  0
  8 32  1  0
  8 33  1  0
 10 34  1  0
 11 35  1  0
 12 36  1  0
 20 37  1  0
 20 38  1  0
 20 39  1  0
 21 40  1  0
 21 41  1  0
 25 42  1  0
 25 43  1  0
 25 44  1  0
M  END
>  <score>  (5) 
-7.622

$$$$
=
     RDKit          3D

 44 45  0  0  0  0  0  0  0  0999 V2000
    2.0420   60.3170   72.2850 C   0  0  0  0  0  0  0  0  0  0  0  0
    3.1970   60.1430   71.6030 C   0  0  0  0  0  0  0  0  0  0  0  0
    4.1270   58.9710   71.7780 C   0  0  0  0  0  0  0  0  0  0  0  0
    3.5640   61.0700   70.6400 N   0  0  0  0  0  0  0  0  0  0  0  0
    2.8140   62.1810   70.2830 C   0  0  0  0  0  0  0  0  0  0  0  0
    1.6470   62.4280   70.9210 C   0  0  0  0  0  0  0  0  0  0  0  0
    1.1250   61.5020   72.0130 C   0  0  2  0  0  0  0  0  0  0  0  0
    3.3640   63.0080   69.1500 C   0  0  0  0  0  0  0  0  0  0  0  0
    0.7350   62.2540   73.2980 C   0  0  0  0  0  0  0  0  0  0  0  0
    1.7170   63.0950   73.8690 C   0  0  0  0  0  0  0  0  0  0  0  0
    1.4610   63.8300   75.0260 C   0  0  0  0  0  0  0  0  0  0  0  0
    0.2180   63.7430   75.6400 C   0  0  0  0  0  0  0  0  0  0  0  0
   -0.7720   62.9190   75.0990 C   0  0  0  0  0  0  0  0  0  0  0  0
   -0.5250   62.1710   73.9330 C   0  0  0  0  0  0  0  0  0  0  0  0
   -1.7790   61.1560   73.2930 Cl  0  0  0  0  0  0  0  0  0  0  0  0
   -2.2900   62.8760   75.9330 Cl  0  0  0  0  0  0  0  0  0  0  0  0
    1.5550   59.3730   73.3110 C   0  0  0  0  0  0  0  0  0  0  0  0
    0.6000   58.6310   73.1400 O   0  0  0  0  0  0  0  0  0  0  0  0
    2.2530   59.5470   74.4600 O   0  0  0  0  0  0  0  0  0  0  0  0
    1.6520   60.4380   76.6240 C   0  0  0  0  0  0  0  0  0  0  0  0
    1.5380   59.2640   75.6690 C   0  0  0  0  0  0  0  0  0  0  0  0
    0.7610   63.5610   70.5860 C   0  0  0  0  0  0  0  0  0  0  0  0
   -0.3110   63.4290   70.0160 O   0  0  0  0  0  0  0  0  0  0  0  0
    1.2730   64.7170   71.0740 O   0  0  0  0  0  0  0  0  0  0  0  0
    1.0390   65.8520   70.2410 C   0  0  0  0  0  0  0  0  0  0  0  0
    4.2785   58.7801   72.8507 H   0  0  0  0  0  0  0  0  0  0  0  0
    3.6873   58.0802   71.3056 H   0  0  0  0  0  0  0  0  0  0  0  0
    5.0944   59.1968   71.3056 H   0  0  0  0  0  0  0  0  0  0  0  0
    4.4599   60.9230   70.1535 H   0  0  0  0  0  0  0  0  0  0  0  0
    0.1941   61.0737   71.6131 H   0  0  0  0  0  0  0  0  0  0  0  0
    3.9297   63.8586   69.5579 H   0  0  0  0  0  0  0  0  0  0  0  0
    4.0298   62.3872   68.5325 H   0  0  0  0  0  0  0  0  0  0  0  0
    2.5341   63.3819   68.5325 H   0  0  0  0  0  0  0  0  0  0  0  0
    2.7045   63.1714   73.3904 H   0  0  0  0  0  0  0  0  0  0  0  0
    2.2418   64.4774   75.4517 H   0  0  0  0  0  0  0  0  0  0  0  0
    0.0132   64.3228   76.5521 H   0  0  0  0  0  0  0  0  0  0  0  0
    1.6165   60.0721   77.6607 H   0  0  0  0  0  0  0  0  0  0  0  0
    2.6050   60.9596   76.4517 H   0  0  0  0  0  0  0  0  0  0  0  0
    0.8171   61.1332   76.4517 H   0  0  0  0  0  0  0  0  0  0  0  0
    0.4782   59.0875   75.4331 H   0  0  0  0  0  0  0  0  0  0  0  0
    1.9678   58.3691   76.1427 H   0  0  0  0  0  0  0  0  0  0  0  0
    0.8567   66.7364   70.8691 H   0  0  0  0  0  0  0  0  0  0  0  0
    1.9196   66.0285   69.6059 H   0  0  0  0  0  0  0  0  0  0  0  0
    0.1603   65.6658   69.6059 H   0  0  0  0  0  0  0  0  0  0  0  0
  2  1  2  0
  3  2  1  0
  4  2  1  0
  5  4  1  0
  6  5  2  0
  7  6  1  0
  7  1  1  0
  8  5  1  0
  9  7  1  0
 10  9  2  0
 11 10  1  0
 12 11  2  0
 13 12  1  0
 14 13  2  0
 14  9  1  0
 15 14  1  0
 16 13  1  0
 17  1  1  0
 18 17  2  0
 19 17  1  0
 21 19  1  0
 21 20  1  0
 22  6  1  0
 23 22  2  0
 24 22  1  0
 25 24  1  0
  3 26  1  0
  3 27  1  0
  3 28  1  0
  4 29  1  0
  7 30  1  6
  8 31  1  0
  8 32  1  0
  8 33  1  0
 10 34  1  0
 11 35  1  0
 12 36  1  0
 20 37  1  0
 20 38  1  0
 20 39  1  0
 21 40  1  0
 21 41  1  0
 25 42  1  0
 25 43  1  0
 25 44  1  0
M  END
>  <score>  (6) 
-7.603

$$$$
=
     RDKit          3D

 44 45  0  0  0  0  0  0  0  0999 V2000
    2.6000   61.0040   72.4260 C   0  0  0  0  0  0  0  0  0  0  0  0
    3.0410   62.1500   71.8590 C   0  0  0  0  0  0  0  0  0  0  0  0
    4.3830   62.3160   71.1970 C   0  0  0  0  0  0  0  0  0  0  0  0
    2.2110   63.2600   71.8340 N   0  0  0  0  0  0  0  0  0  0  0  0
    0.9160   63.2910   72.3310 C   0  0  0  0  0  0  0  0  0  0  0  0
    0.4010   62.1860   72.9160 C   0  0  0  0  0  0  0  0  0  0  0  0
    1.2050   60.8960   73.0280 C   0  0  2  0  0  0  0  0  0  0  0  0
    0.1650   64.5810   72.1220 C   0  0  0  0  0  0  0  0  0  0  0  0
    1.2210   60.3250   74.4570 C   0  0  0  0  0  0  0  0  0  0  0  0
    1.8910   61.0850   75.4420 C   0  0  0  0  0  0  0  0  0  0  0  0
    1.9540   60.6630   76.7690 C   0  0  0  0  0  0  0  0  0  0  0  0
    1.3480   59.4700   77.1440 C   0  0  0  0  0  0  0  0  0  0  0  0
    0.6800   58.6960   76.1930 C   0  0  0  0  0  0  0  0  0  0  0  0
    0.6110   59.1110   74.8490 C   0  0  0  0  0  0  0  0  0  0  0  0
   -0.2250   58.1210   73.6960 Cl  0  0  0  0  0  0  0  0  0  0  0  0
   -0.0460   57.2260   76.7540 Cl  0  0  0  0  0  0  0  0  0  0  0  0
    3.3990   59.7640   72.4790 C   0  0  0  0  0  0  0  0  0  0  0  0
    4.4950   59.6940   73.0110 O   0  0  0  0  0  0  0  0  0  0  0  0
    2.7790   58.7900   71.7690 O   0  0  0  0  0  0  0  0  0  0  0  0
    3.4940   59.2820   69.5140 C   0  0  0  0  0  0  0  0  0  0  0  0
    3.5090   58.2750   70.6500 C   0  0  0  0  0  0  0  0  0  0  0  0
   -0.9780   62.1100   73.4390 C   0  0  0  0  0  0  0  0  0  0  0  0
   -1.8640   61.4640   72.9020 O   0  0  0  0  0  0  0  0  0  0  0  0
   -1.0720   62.7790   74.6140 O   0  0  0  0  0  0  0  0  0  0  0  0
   -1.7740   62.0660   75.6320 C   0  0  0  0  0  0  0  0  0  0  0  0
    5.1624   62.4124   71.9672 H   0  0  0  0  0  0  0  0  0  0  0  0
    4.5938   61.4371   70.5700 H   0  0  0  0  0  0  0  0  0  0  0  0
    4.3733   63.2198   70.5700 H   0  0  0  0  0  0  0  0  0  0  0  0
    2.5828   64.1248   71.4160 H   0  0  0  0  0  0  0  0  0  0  0  0
    0.6687   60.1613   72.4095 H   0  0  0  0  0  0  0  0  0  0  0  0
   -0.0900   65.0191   73.0982 H   0  0  0  0  0  0  0  0  0  0  0  0
    0.7947   65.2846   71.5576 H   0  0  0  0  0  0  0  0  0  0  0  0
   -0.7577   64.3808   71.5576 H   0  0  0  0  0  0  0  0  0  0  0  0
    2.3737   62.0309   75.1551 H   0  0  0  0  0  0  0  0  0  0  0  0
    2.4819   61.2726   77.5172 H   0  0  0  0  0  0  0  0  0  0  0  0
    1.3946   59.1352   78.1908 H   0  0  0  0  0  0  0  0  0  0  0  0
    3.4788   60.3012   69.9276 H   0  0  0  0  0  0  0  0  0  0  0  0
    4.3942   59.1506   68.8956 H   0  0  0  0  0  0  0  0  0  0  0  0
    2.5981   59.1239   68.8956 H   0  0  0  0  0  0  0  0  0  0  0  0
    4.5490   58.0809   70.9513 H   0  0  0  0  0  0  0  0  0  0  0  0
    3.0389   57.3402   70.3108 H   0  0  0  0  0  0  0  0  0  0  0  0
   -1.4354   62.4099   76.6205 H   0  0  0  0  0  0  0  0  0  0  0  0
   -2.8538   62.2495   75.5300 H   0  0  0  0  0  0  0  0  0  0  0  0
   -1.5738   60.9892   75.5300 H   0  0  0  0  0  0  0  0  0  0  0  0
  2  1  2  0
  3  2  1  0
  4  2  1  0
  5  4  1  0
  6  5  2  0
  7  6  1  0
  7  1  1  0
  8  5  1  0
  9  7  1  0
 10  9  2  0
 11 10  1  0
 12 11  2  0
 13 12  1  0
 14 13  2  0
 14  9  1  0
 15 14  1  0
 16 13  1  0
 17  1  1  0
 18 17  2  0
 19 17  1  0
 21 19  1  0
 21 20  1  0
 22  6  1  0
 23 22  2  0
 24 22  1  0
 25 24  1  0
  3 26  1  0
  3 27  1  0
  3 28  1  0
  4 29  1  0
  7 30  1  6
  8 31  1  0
  8 32  1  0
  8 33  1  0
 10 34  1  0
 11 35  1  0
 12 36  1  0
 20 37  1  0
 20 38  1  0
 20 39  1  0
 21 40  1  0
 21 41  1  0
 25 42  1  0
 25 43  1  0
 25 44  1  0
M  END
>  <score>  (7) 
-6.995

$$$$
=
     RDKit          3D

 44 45  0  0  0  0  0  0  0  0999 V2000
    0.9310   68.7770   66.1470 C   0  0  0  0  0  0  0  0  0  0  0  0
   -0.4080   68.6070   66.2370 C   0  0  0  0  0  0  0  0  0  0  0  0
   -1.1620   68.4070   67.5240 C   0  0  0  0  0  0  0  0  0  0  0  0
   -1.1780   68.6500   65.0840 N   0  0  0  0  0  0  0  0  0  0  0  0
   -0.6830   68.8890   63.8100 C   0  0  0  0  0  0  0  0  0  0  0  0
    0.6460   69.0660   63.6350 C   0  0  0  0  0  0  0  0  0  0  0  0
    1.6160   69.0290   64.8100 C   0  0  2  0  0  0  0  0  0  0  0  0
   -1.7120   68.9770   62.7130 C   0  0  0  0  0  0  0  0  0  0  0  0
    2.8080   68.0860   64.5710 C   0  0  0  0  0  0  0  0  0  0  0  0
    4.0780   68.6870   64.4200 C   0  0  0  0  0  0  0  0  0  0  0  0
    5.2250   67.9220   64.2110 C   0  0  0  0  0  0  0  0  0  0  0  0
    5.1310   66.5370   64.1490 C   0  0  0  0  0  0  0  0  0  0  0  0
    3.8880   65.9150   64.2930 C   0  0  0  0  0  0  0  0  0  0  0  0
    2.7230   66.6770   64.5020 C   0  0  0  0  0  0  0  0  0  0  0  0
    1.1980   65.8670   64.6740 Cl  0  0  0  0  0  0  0  0  0  0  0  0
    3.8690   64.1840   64.2020 Cl  0  0  0  0  0  0  0  0  0  0  0  0
    1.8300   68.7710   67.3180 C   0  0  0  0  0  0  0  0  0  0  0  0
    1.9490   67.8150   68.0680 O   0  0  0  0  0  0  0  0  0  0  0  0
    2.3920   69.9950   67.4680 O   0  0  0  0  0  0  0  0  0  0  0  0
    4.7850   70.1990   67.7380 C   0  0  0  0  0  0  0  0  0  0  0  0
    3.4430   70.0820   68.4380 C   0  0  0  0  0  0  0  0  0  0  0  0
    1.2620   69.3630   62.3260 C   0  0  0  0  0  0  0  0  0  0  0  0
    1.0810   70.4090   61.7220 O   0  0  0  0  0  0  0  0  0  0  0  0
    2.0970   68.3600   61.9620 O   0  0  0  0  0  0  0  0  0  0  0  0
    3.1170   68.7590   61.0470 C   0  0  0  0  0  0  0  0  0  0  0  0
   -0.4885   68.5857   68.3751 H   0  0  0  0  0  0  0  0  0  0  0  0
   -2.0046   69.1127   67.5688 H   0  0  0  0  0  0  0  0  0  0  0  0
   -1.5441   67.3765   67.5688 H   0  0  0  0  0  0  0  0  0  0  0  0
   -2.1914   68.4930   65.1807 H   0  0  0  0  0  0  0  0  0  0  0  0
    2.0351   70.0439   64.8754 H   0  0  0  0  0  0  0  0  0  0  0  0
   -2.7148   69.0628   63.1569 H   0  0  0  0  0  0  0  0  0  0  0  0
   -1.5097   69.8611   62.0906 H   0  0  0  0  0  0  0  0  0  0  0  0
   -1.6628   68.0714   62.0906 H   0  0  0  0  0  0  0  0  0  0  0  0
    4.1637   69.7826   64.4684 H   0  0  0  0  0  0  0  0  0  0  0  0
    6.2021   68.4139   64.0955 H   0  0  0  0  0  0  0  0  0  0  0  0
    6.0344   65.9307   63.9867 H   0  0  0  0  0  0  0  0  0  0  0  0
    5.5855   70.2688   68.4892 H   0  0  0  0  0  0  0  0  0  0  0  0
    4.9489   69.3117   67.1088 H   0  0  0  0  0  0  0  0  0  0  0  0
    4.7929   71.1012   67.1088 H   0  0  0  0  0  0  0  0  0  0  0  0
    3.2832   70.9678   69.0703 H   0  0  0  0  0  0  0  0  0  0  0  0
    3.4373   69.1747   69.0600 H   0  0  0  0  0  0  0  0  0  0  0  0
    3.9983   69.1037   61.6078 H   0  0  0  0  0  0  0  0  0  0  0  0
    3.3966   67.9040   60.4140 H   0  0  0  0  0  0  0  0  0  0  0  0
    2.7423   69.5768   60.4140 H   0  0  0  0  0  0  0  0  0  0  0  0
  2  1  2  0
  3  2  1  0
  4  2  1  0
  5  4  1  0
  6  5  2  0
  7  6  1  0
  7  1  1  0
  8  5  1  0
  9  7  1  0
 10  9  2  0
 11 10  1  0
 12 11  2  0
 13 12  1  0
 14 13  2  0
 14  9  1  0
 15 14  1  0
 16 13  1  0
 17  1  1  0
 18 17  2  0
 19 17  1  0
 21 19  1  0
 21 20  1  0
 22  6  1  0
 23 22  2  0
 24 22  1  0
 25 24  1  0
  3 26  1  0
  3 27  1  0
  3 28  1  0
  4 29  1  0
  7 30  1  1
  8 31  1  0
  8 32  1  0
  8 33  1  0
 10 34  1  0
 11 35  1  0
 12 36  1  0
 20 37  1  0
 20 38  1  0
 20 39  1  0
 21 40  1  0
 21 41  1  0
 25 42  1  0
 25 43  1  0
 25 44  1  0
M  END
>  <score>  (8) 
-6.358

$$$$
=
     RDKit          3D

 44 45  0  0  0  0  0  0  0  0999 V2000
    2.6500   60.5140   73.5280 C   0  0  0  0  0  0  0  0  0  0  0  0
    3.0200   61.7790   73.2250 C   0  0  0  0  0  0  0  0  0  0  0  0
    4.1130   62.1430   72.2570 C   0  0  0  0  0  0  0  0  0  0  0  0
    2.3410   62.8420   73.8010 N   0  0  0  0  0  0  0  0  0  0  0  0
    1.2630   62.7180   74.6660 C   0  0  0  0  0  0  0  0  0  0  0  0
    0.8330   61.4850   75.0200 C   0  0  0  0  0  0  0  0  0  0  0  0
    1.4950   60.2240   74.4780 C   0  0  2  0  0  0  0  0  0  0  0  0
    0.6230   64.0090   75.1050 C   0  0  0  0  0  0  0  0  0  0  0  0
    1.8760   59.2260   75.5840 C   0  0  0  0  0  0  0  0  0  0  0  0
    2.8520   59.6460   76.5150 C   0  0  0  0  0  0  0  0  0  0  0  0
    3.2610   58.8220   77.5630 C   0  0  0  0  0  0  0  0  0  0  0  0
    2.7020   57.5580   77.7070 C   0  0  0  0  0  0  0  0  0  0  0  0
    1.7350   57.1150   76.8010 C   0  0  0  0  0  0  0  0  0  0  0  0
    1.3170   57.9370   75.7380 C   0  0  0  0  0  0  0  0  0  0  0  0
    0.1160   57.3490   74.6320 Cl  0  0  0  0  0  0  0  0  0  0  0  0
    1.0950   55.5260   77.0610 Cl  0  0  0  0  0  0  0  0  0  0  0  0
    3.2950   59.3190   72.9480 C   0  0  0  0  0  0  0  0  0  0  0  0
    4.3630   58.8770   73.3390 O   0  0  0  0  0  0  0  0  0  0  0  0
    2.5780   58.8840   71.8830 O   0  0  0  0  0  0  0  0  0  0  0  0
    3.5080   59.5110   69.7420 C   0  0  0  0  0  0  0  0  0  0  0  0
    3.3450   58.4070   70.7700 C   0  0  0  0  0  0  0  0  0  0  0  0
   -0.3270   61.2510   75.9030 C   0  0  0  0  0  0  0  0  0  0  0  0
   -1.3880   60.7910   75.5090 O   0  0  0  0  0  0  0  0  0  0  0  0
   -0.0050   61.5380   77.1880 O   0  0  0  0  0  0  0  0  0  0  0  0
   -0.4230   60.5460   78.1250 C   0  0  0  0  0  0  0  0  0  0  0  0
    5.0123   62.4425   72.8151 H   0  0  0  0  0  0  0  0  0  0  0  0
    4.3466   61.2742   71.6241 H   0  0  0  0  0  0  0  0  0  0  0  0
    3.7791   62.9784   71.6241 H   0  0  0  0  0  0  0  0  0  0  0  0
    2.6602   63.7936   73.5698 H   0  0  0  0  0  0  0  0  0  0  0  0
    0.7249   59.7270   73.8698 H   0  0  0  0  0  0  0  0  0  0  0  0
    0.6015   64.0525   76.2039 H   0  0  0  0  0  0  0  0  0  0  0  0
    1.2048   64.8576   74.7158 H   0  0  0  0  0  0  0  0  0  0  0  0
   -0.4046   64.0597   74.7158 H   0  0  0  0  0  0  0  0  0  0  0  0
    3.2994   60.6455   76.4109 H   0  0  0  0  0  0  0  0  0  0  0  0
    4.0242   59.1717   78.2739 H   0  0  0  0  0  0  0  0  0  0  0  0
    3.0207   56.9064   78.5340 H   0  0  0  0  0  0  0  0  0  0  0  0
    3.6500   60.4729   70.2564 H   0  0  0  0  0  0  0  0  0  0  0  0
    4.3846   59.2990   69.1122 H   0  0  0  0  0  0  0  0  0  0  0  0
    2.6076   59.5614   69.1122 H   0  0  0  0  0  0  0  0  0  0  0  0
    4.3370   58.0869   71.1214 H   0  0  0  0  0  0  0  0  0  0  0  0
    2.8213   57.5572   70.3078 H   0  0  0  0  0  0  0  0  0  0  0  0
   -0.2660   60.9186   79.1480 H   0  0  0  0  0  0  0  0  0  0  0  0
   -1.4903   60.3261   77.9746 H   0  0  0  0  0  0  0  0  0  0  0  0
    0.1651   59.6286   77.9746 H   0  0  0  0  0  0  0  0  0  0  0  0
  2  1  2  0
  3  2  1  0
  4  2  1  0
  5  4  1  0
  6  5  2  0
  7  6  1  0
  7  1  1  0
  8  5  1  0
  9  7  1  0
 10  9  2  0
 11 10  1  0
 12 11  2  0
 13 12  1  0
 14 13  2  0
 14  9  1  0
 15 14  1  0
 16 13  1  0
 17  1  1  0
 18 17  2  0
 19 17  1  0
 21 19  1  0
 21 20  1  0
 22  6  1  0
 23 22  2  0
 24 22  1  0
 25 24  1  0
  3 26  1  0
  3 27  1  0
  3 28  1  0
  4 29  1  0
  7 30  1  6
  8 31  1  0
  8 32  1  0
  8 33  1  0
 10 34  1  0
 11 35  1  0
 12 36  1  0
 20 37  1  0
 20 38  1  0
 20 39  1  0
 21 40  1  0
 21 41  1  0
 25 42  1  0
 25 43  1  0
 25 44  1  0
M  END
>  <score>  (9) 
-5.931

$$$$
