=
     RDKit          3D

 27 28  0  0  0  0  0  0  0  0999 V2000
    1.5030   67.7600   66.9610 S   0  0  0  0  0  6  0  0  0  0  0  0
    1.9570   66.6290   66.1820 O   0  0  0  0  0  0  0  0  0  0  0  0
    1.7150   67.8430   68.3900 O   0  0  0  0  0  0  0  0  0  0  0  0
    2.0800   69.1450   66.1780 N   0  0  0  0  0  0  0  0  0  0  0  0
    3.4730   69.3910   66.5190 C   0  0  0  0  0  0  0  0  0  0  0  0
    4.4170   69.0930   65.6590 N   0  0  0  0  0  0  0  0  0  0  0  0
    5.6650   69.4580   66.1260 N   0  0  0  0  0  0  0  0  0  0  0  0
    5.5990   70.0520   67.3010 C   0  0  0  0  0  0  0  0  0  0  0  0
    4.0000   70.2280   67.9100 S   0  0  0  0  0  0  0  0  0  0  0  0
    6.7650   70.5550   68.0680 C   0  0  0  0  0  0  0  0  0  0  0  0
   -2.9870   68.2610   66.2240 C   0  0  0  0  0  0  0  0  0  0  0  0
   -2.0570   69.0310   65.5180 C   0  0  0  0  0  0  0  0  0  0  0  0
   -0.6850   68.8680   65.7300 C   0  0  0  0  0  0  0  0  0  0  0  0
   -0.2430   67.9490   66.6830 C   0  0  0  0  0  0  0  0  0  0  0  0
   -1.1580   67.2220   67.4460 C   0  0  0  0  0  0  0  0  0  0  0  0
   -2.5260   67.3960   67.2230 C   0  0  0  0  0  0  0  0  0  0  0  0
   -4.3550   68.5160   66.0920 N   0  0  0  0  0  0  0  0  0  0  0  0
    1.5204   69.7344   65.5453 H   0  0  0  0  0  0  0  0  0  0  0  0
    6.5609   70.4669   69.1453 H   0  0  0  0  0  0  0  0  0  0  0  0
    7.6551   69.9608   67.8137 H   0  0  0  0  0  0  0  0  0  0  0  0
    6.9436   71.6102   67.8137 H   0  0  0  0  0  0  0  0  0  0  0  0
   -2.4095   69.7737   64.7872 H   0  0  0  0  0  0  0  0  0  0  0  0
    0.0400   69.4588   65.1509 H   0  0  0  0  0  0  0  0  0  0  0  0
   -0.8055   66.5191   68.2152 H   0  0  0  0  0  0  0  0  0  0  0  0
   -3.2507   66.8457   67.8410 H   0  0  0  0  0  0  0  0  0  0  0  0
   -5.0375   67.9473   66.6132 H   0  0  0  0  0  0  0  0  0  0  0  0
   -4.6805   69.2726   65.4736 H   0  0  0  0  0  0  0  0  0  0  0  0
  2  1  2  0
  3  1  2  0
  4  1  1  0
  5  4  1  0
  6  5  2  0
  7  6  1  0
  8  7  2  0
  9  5  1  0
  9  8  1  0
 10  8  1  0
 12 11  2  0
 13 12  1  0
 14 13  2  0
 14  1  1  0
 15 14  1  0
 16 15  2  0
 16 11  1  0
 17 11  1  0
  4 18  1  0
 10 19  1  0
 10 20  1  0
 10 21  1  0
 12 22  1  0
 13 23  1  0
 15 24  1  0
 16 25  1  0
 17 26  1  0
 17 27  1  0
M  END
>  <score>  (1) 
-8.31

$$$$
=
     RDKit          3D

 27 28  0  0  0  0  0  0  0  0999 V2000
    2.2770   68.2970   65.9220 S   0  0  0  0  0  6  0  0  0  0  0  0
    2.8250   67.0020   65.5800 O   0  0  0  0  0  0  0  0  0  0  0  0
    1.6170   69.1330   64.9430 O   0  0  0  0  0  0  0  0  0  0  0  0
    1.2990   68.0600   67.2810 N   0  0  0  0  0  0  0  0  0  0  0  0
   -0.1060   67.9990   66.9060 C   0  0  0  0  0  0  0  0  0  0  0  0
   -0.7180   66.8410   66.8560 N   0  0  0  0  0  0  0  0  0  0  0  0
   -2.0570   66.9850   66.5490 N   0  0  0  0  0  0  0  0  0  0  0  0
   -2.4010   68.2500   66.4220 C   0  0  0  0  0  0  0  0  0  0  0  0
   -1.1140   69.3590   66.6920 S   0  0  0  0  0  0  0  0  0  0  0  0
   -3.7650   68.7330   66.0900 C   0  0  0  0  0  0  0  0  0  0  0  0
    5.6470   70.7980   67.7490 C   0  0  0  0  0  0  0  0  0  0  0  0
    5.8060   70.1880   66.5010 C   0  0  0  0  0  0  0  0  0  0  0  0
    4.7730   69.4380   65.9340 C   0  0  0  0  0  0  0  0  0  0  0  0
    3.5810   69.2690   66.6400 C   0  0  0  0  0  0  0  0  0  0  0  0
    3.4300   69.8120   67.9160 C   0  0  0  0  0  0  0  0  0  0  0  0
    4.4720   70.5600   68.4710 C   0  0  0  0  0  0  0  0  0  0  0  0
    6.7270   71.4440   68.3590 N   0  0  0  0  0  0  0  0  0  0  0  0
    1.6505   67.9708   68.2450 H   0  0  0  0  0  0  0  0  0  0  0  0
   -4.3205   68.9297   67.0188 H   0  0  0  0  0  0  0  0  0  0  0  0
   -3.6928   69.6602   65.5026 H   0  0  0  0  0  0  0  0  0  0  0  0
   -4.2924   67.9670   65.5026 H   0  0  0  0  0  0  0  0  0  0  0  0
    6.7565   70.3001   65.9589 H   0  0  0  0  0  0  0  0  0  0  0  0
    4.8979   68.9845   64.9397 H   0  0  0  0  0  0  0  0  0  0  0  0
    2.4993   69.6529   68.4803 H   0  0  0  0  0  0  0  0  0  0  0  0
    4.3673   70.9666   69.4877 H   0  0  0  0  0  0  0  0  0  0  0  0
    6.6064   71.8924   69.2784 H   0  0  0  0  0  0  0  0  0  0  0  0
    7.6430   71.4714   67.8888 H   0  0  0  0  0  0  0  0  0  0  0  0
  2  1  2  0
  3  1  2  0
  4  1  1  0
  5  4  1  0
  6  5  2  0
  7  6  1  0
  8  7  2  0
  9  5  1  0
  9  8  1  0
 10  8  1  0
 12 11  2  0
 13 12  1  0
 14 13  2  0
 14  1  1  0
 15 14  1  0
 16 15  2  0
 16 11  1  0
 17 11  1  0
  4 18  1  0
 10 19  1  0
 10 20  1  0
 10 21  1  0
 12 22  1  0
 13 23  1  0
 15 24  1  0
 16 25  1  0
 17 26  1  0
 17 27  1  0
M  END
>  <score>  (2) 
-7.916

$$$$
=
     RDKit          3D

 27 28  0  0  0  0  0  0  0  0999 V2000
    1.3640   67.5770   66.8490 S   0  0  0  0  0  6  0  0  0  0  0  0
    1.5450   66.8560   68.0910 O   0  0  0  0  0  0  0  0  0  0  0  0
    2.0340   68.8310   66.5860 O   0  0  0  0  0  0  0  0  0  0  0  0
    1.6420   66.4650   65.6050 N   0  0  0  0  0  0  0  0  0  0  0  0
    2.3550   67.0880   64.5000 C   0  0  0  0  0  0  0  0  0  0  0  0
    3.6370   66.8630   64.3410 N   0  0  0  0  0  0  0  0  0  0  0  0
    4.1270   67.4810   63.2070 N   0  0  0  0  0  0  0  0  0  0  0  0
    3.1800   68.1130   62.5410 C   0  0  0  0  0  0  0  0  0  0  0  0
    1.6160   67.9750   63.2430 S   0  0  0  0  0  0  0  0  0  0  0  0
    3.3860   68.8770   61.2860 C   0  0  0  0  0  0  0  0  0  0  0  0
   -3.1130   68.3250   66.2660 C   0  0  0  0  0  0  0  0  0  0  0  0
   -2.1660   69.0570   65.5430 C   0  0  0  0  0  0  0  0  0  0  0  0
   -0.7990   68.8190   65.7070 C   0  0  0  0  0  0  0  0  0  0  0  0
   -0.3770   67.8620   66.6310 C   0  0  0  0  0  0  0  0  0  0  0  0
   -1.3040   67.1710   67.4120 C   0  0  0  0  0  0  0  0  0  0  0  0
   -2.6680   67.4200   67.2370 C   0  0  0  0  0  0  0  0  0  0  0  0
   -4.4690   68.6540   66.1840 N   0  0  0  0  0  0  0  0  0  0  0  0
    1.3461   65.4787   65.6268 H   0  0  0  0  0  0  0  0  0  0  0  0
    3.6653   69.9128   61.5290 H   0  0  0  0  0  0  0  0  0  0  0  0
    4.1899   68.4085   60.6993 H   0  0  0  0  0  0  0  0  0  0  0  0
    2.4555   68.8761   60.6993 H   0  0  0  0  0  0  0  0  0  0  0  0
   -2.5016   69.8301   64.8361 H   0  0  0  0  0  0  0  0  0  0  0  0
   -0.0625   69.3805   65.1135 H   0  0  0  0  0  0  0  0  0  0  0  0
   -0.9646   66.4375   68.1581 H   0  0  0  0  0  0  0  0  0  0  0  0
   -3.4010   66.8985   67.8700 H   0  0  0  0  0  0  0  0  0  0  0  0
   -5.1635   68.1124   66.7181 H   0  0  0  0  0  0  0  0  0  0  0  0
   -4.7737   69.4380   65.5895 H   0  0  0  0  0  0  0  0  0  0  0  0
  2  1  2  0
  3  1  2  0
  4  1  1  0
  5  4  1  0
  6  5  2  0
  7  6  1  0
  8  7  2  0
  9  5  1  0
  9  8  1  0
 10  8  1  0
 12 11  2  0
 13 12  1  0
 14 13  2  0
 14  1  1  0
 15 14  1  0
 16 15  2  0
 16 11  1  0
 17 11  1  0
  4 18  1  0
 10 19  1  0
 10 20  1  0
 10 21  1  0
 12 22  1  0
 13 23  1  0
 15 24  1  0
 16 25  1  0
 17 26  1  0
 17 27  1  0
M  END
>  <score>  (3) 
-7.75

$$$$
=
     RDKit          3D

 27 28  0  0  0  0  0  0  0  0999 V2000
    2.4140   68.5470   65.1630 S   0  0  0  0  0  6  0  0  0  0  0  0
    1.2890   68.7850   64.2860 O   0  0  0  0  0  0  0  0  0  0  0  0
    3.4800   69.5110   65.3240 O   0  0  0  0  0  0  0  0  0  0  0  0
    1.7680   68.0970   66.6610 N   0  0  0  0  0  0  0  0  0  0  0  0
    0.3170   68.0060   66.5940 C   0  0  0  0  0  0  0  0  0  0  0  0
   -0.2600   66.8300   66.5300 N   0  0  0  0  0  0  0  0  0  0  0  0
   -1.6380   66.9380   66.5420 N   0  0  0  0  0  0  0  0  0  0  0  0
   -2.0340   68.1890   66.6550 C   0  0  0  0  0  0  0  0  0  0  0  0
   -0.7490   69.3260   66.7800 S   0  0  0  0  0  0  0  0  0  0  0  0
   -3.4490   68.6340   66.6920 C   0  0  0  0  0  0  0  0  0  0  0  0
    4.3820   64.6120   63.8990 C   0  0  0  0  0  0  0  0  0  0  0  0
    4.8700   65.8370   63.4340 C   0  0  0  0  0  0  0  0  0  0  0  0
    4.2810   67.0400   63.8310 C   0  0  0  0  0  0  0  0  0  0  0  0
    3.1700   67.0130   64.6760 C   0  0  0  0  0  0  0  0  0  0  0  0
    2.6270   65.7990   65.0950 C   0  0  0  0  0  0  0  0  0  0  0  0
    3.2260   64.6040   64.6890 C   0  0  0  0  0  0  0  0  0  0  0  0
    4.9000   63.4130   63.4010 N   0  0  0  0  0  0  0  0  0  0  0  0
    2.3266   67.9123   67.5065 H   0  0  0  0  0  0  0  0  0  0  0  0
   -3.7740   68.7362   67.7379 H   0  0  0  0  0  0  0  0  0  0  0  0
   -3.5416   69.6046   66.1828 H   0  0  0  0  0  0  0  0  0  0  0  0
   -4.0805   67.8911   66.1828 H   0  0  0  0  0  0  0  0  0  0  0  0
    5.7287   65.8537   62.7468 H   0  0  0  0  0  0  0  0  0  0  0  0
    4.6889   67.9997   63.4810 H   0  0  0  0  0  0  0  0  0  0  0  0
    1.7355   65.7824   65.7391 H   0  0  0  0  0  0  0  0  0  0  0  0
    2.7837   63.6441   64.9940 H   0  0  0  0  0  0  0  0  0  0  0  0
    4.5377   62.5127   63.7462 H   0  0  0  0  0  0  0  0  0  0  0  0
    5.6439   63.4298   62.6888 H   0  0  0  0  0  0  0  0  0  0  0  0
  2  1  2  0
  3  1  2  0
  4  1  1  0
  5  4  1  0
  6  5  2  0
  7  6  1  0
  8  7  2  0
  9  5  1  0
  9  8  1  0
 10  8  1  0
 12 11  2  0
 13 12  1  0
 14 13  2  0
 14  1  1  0
 15 14  1  0
 16 15  2  0
 16 11  1  0
 17 11  1  0
  4 18  1  0
 10 19  1  0
 10 20  1  0
 10 21  1  0
 12 22  1  0
 13 23  1  0
 15 24  1  0
 16 25  1  0
 17 26  1  0
 17 27  1  0
M  END
>  <score>  (4) 
-6.924

$$$$
=
     RDKit          3D

 27 28  0  0  0  0  0  0  0  0999 V2000
    3.7860   60.9630   71.0730 S   0  0  0  0  0  6  0  0  0  0  0  0
    4.9370   60.4010   70.3980 O   0  0  0  0  0  0  0  0  0  0  0  0
    3.9160   61.9860   72.0860 O   0  0  0  0  0  0  0  0  0  0  0  0
    2.7040   61.4360   69.8620 N   0  0  0  0  0  0  0  0  0  0  0  0
    2.1390   62.7450   70.1530 C   0  0  0  0  0  0  0  0  0  0  0  0
    2.5760   63.8020   69.5110 N   0  0  0  0  0  0  0  0  0  0  0  0
    1.8790   64.9400   69.8690 N   0  0  0  0  0  0  0  0  0  0  0  0
    0.9220   64.6800   70.7360 C   0  0  0  0  0  0  0  0  0  0  0  0
    0.7880   63.0180   71.1600 S   0  0  0  0  0  0  0  0  0  0  0  0
    0.0030   65.6900   71.3180 C   0  0  0  0  0  0  0  0  0  0  0  0
    1.4530   57.4940   72.9370 C   0  0  0  0  0  0  0  0  0  0  0  0
    2.3790   57.2650   71.9160 C   0  0  0  0  0  0  0  0  0  0  0  0
    3.1050   58.3200   71.3560 C   0  0  0  0  0  0  0  0  0  0  0  0
    2.8740   59.6220   71.8020 C   0  0  0  0  0  0  0  0  0  0  0  0
    1.9040   59.8790   72.7710 C   0  0  0  0  0  0  0  0  0  0  0  0
    1.1860   58.8140   73.3210 C   0  0  0  0  0  0  0  0  0  0  0  0
    0.6470   56.4510   73.4040 N   0  0  0  0  0  0  0  0  0  0  0  0
    2.4757   60.8730   69.0302 H   0  0  0  0  0  0  0  0  0  0  0  0
    0.0497   65.6387   72.4158 H   0  0  0  0  0  0  0  0  0  0  0  0
    0.3035   66.6943   70.9847 H   0  0  0  0  0  0  0  0  0  0  0  0
   -1.0251   65.4854   70.9847 H   0  0  0  0  0  0  0  0  0  0  0  0
    2.5388   56.2408   71.5480 H   0  0  0  0  0  0  0  0  0  0  0  0
    3.8511   58.1259   70.5714 H   0  0  0  0  0  0  0  0  0  0  0  0
    1.7063   60.9102   73.0990 H   0  0  0  0  0  0  0  0  0  0  0  0
    0.4011   59.0149   74.0650 H   0  0  0  0  0  0  0  0  0  0  0  0
   -0.0343   56.6241   74.1568 H   0  0  0  0  0  0  0  0  0  0  0  0
    0.7347   55.5097   72.9952 H   0  0  0  0  0  0  0  0  0  0  0  0
  2  1  2  0
  3  1  2  0
  4  1  1  0
  5  4  1  0
  6  5  2  0
  7  6  1  0
  8  7  2  0
  9  5  1  0
  9  8  1  0
 10  8  1  0
 12 11  2  0
 13 12  1  0
 14 13  2  0
 14  1  1  0
 15 14  1  0
 16 15  2  0
 16 11  1  0
 17 11  1  0
  4 18  1  0
 10 19  1  0
 10 20  1  0
 10 21  1  0
 12 22  1  0
 13 23  1  0
 15 24  1  0
 16 25  1  0
 17 26  1  0
 17 27  1  0
M  END
>  <score>  (5) 
-6.739

$$$$
=
     RDKit          3D

 27 28  0  0  0  0  0  0  0  0999 V2000
    3.8880   60.7620   72.8170 S   0  0  0  0  0  6  0  0  0  0  0  0
    5.2660   60.8230   73.2520 O   0  0  0  0  0  0  0  0  0  0  0  0
    3.1650   59.5130   72.7300 O   0  0  0  0  0  0  0  0  0  0  0  0
    3.0400   61.8930   73.7470 N   0  0  0  0  0  0  0  0  0  0  0  0
    1.6500   61.4960   73.9090 C   0  0  0  0  0  0  0  0  0  0  0  0
    1.2490   60.9740   75.0430 N   0  0  0  0  0  0  0  0  0  0  0  0
   -0.1100   60.7220   75.0360 N   0  0  0  0  0  0  0  0  0  0  0  0
   -0.6770   61.1040   73.9090 C   0  0  0  0  0  0  0  0  0  0  0  0
    0.4090   61.8220   72.7840 S   0  0  0  0  0  0  0  0  0  0  0  0
   -2.1190   60.9640   73.5920 C   0  0  0  0  0  0  0  0  0  0  0  0
    3.6070   62.7300   68.6940 C   0  0  0  0  0  0  0  0  0  0  0  0
    3.0110   61.4890   68.9350 C   0  0  0  0  0  0  0  0  0  0  0  0
    3.0810   60.8940   70.1970 C   0  0  0  0  0  0  0  0  0  0  0  0
    3.7860   61.5340   71.2180 C   0  0  0  0  0  0  0  0  0  0  0  0
    4.4460   62.7390   70.9770 C   0  0  0  0  0  0  0  0  0  0  0  0
    4.3670   63.3220   69.7100 C   0  0  0  0  0  0  0  0  0  0  0  0
    3.6350   63.2580   67.3990 N   0  0  0  0  0  0  0  0  0  0  0  0
    3.4529   62.7484   74.1453 H   0  0  0  0  0  0  0  0  0  0  0  0
   -2.6962   60.9080   74.5267 H   0  0  0  0  0  0  0  0  0  0  0  0
   -2.4520   61.8340   73.0071 H   0  0  0  0  0  0  0  0  0  0  0  0
   -2.2784   60.0462   73.0071 H   0  0  0  0  0  0  0  0  0  0  0  0
    2.4801   60.9743   68.1206 H   0  0  0  0  0  0  0  0  0  0  0  0
    2.5852   59.9301   70.3845 H   0  0  0  0  0  0  0  0  0  0  0  0
    5.0232   63.2256   71.7771 H   0  0  0  0  0  0  0  0  0  0  0  0
    4.9086   64.2579   69.5080 H   0  0  0  0  0  0  0  0  0  0  0  0
    4.0751   64.1729   67.2253 H   0  0  0  0  0  0  0  0  0  0  0  0
    3.2155   62.7319   66.6192 H   0  0  0  0  0  0  0  0  0  0  0  0
  2  1  2  0
  3  1  2  0
  4  1  1  0
  5  4  1  0
  6  5  2  0
  7  6  1  0
  8  7  2  0
  9  5  1  0
  9  8  1  0
 10  8  1  0
 12 11  2  0
 13 12  1  0
 14 13  2  0
 14  1  1  0
 15 14  1  0
 16 15  2  0
 16 11  1  0
 17 11  1  0
  4 18  1  0
 10 19  1  0
 10 20  1  0
 10 21  1  0
 12 22  1  0
 13 23  1  0
 15 24  1  0
 16 25  1  0
 17 26  1  0
 17 27  1  0
M  END
>  <score>  (6) 
-6.534

$$$$
=
     RDKit          3D

 27 28  0  0  0  0  0  0  0  0999 V2000
    2.3160   62.1590   72.3220 S   0  0  0  0  0  6  0  0  0  0  0  0
    2.6650   63.0290   71.2200 O   0  0  0  0  0  0  0  0  0  0  0  0
    2.8950   62.3170   73.6380 O   0  0  0  0  0  0  0  0  0  0  0  0
    0.6260   62.1350   72.3980 N   0  0  0  0  0  0  0  0  0  0  0  0
    0.1540   62.7090   73.6490 C   0  0  0  0  0  0  0  0  0  0  0  0
   -0.3390   63.9240   73.6640 N   0  0  0  0  0  0  0  0  0  0  0  0
   -0.7960   64.2720   74.9200 N   0  0  0  0  0  0  0  0  0  0  0  0
   -0.6630   63.2870   75.7850 C   0  0  0  0  0  0  0  0  0  0  0  0
    0.0110   61.8520   75.1180 S   0  0  0  0  0  0  0  0  0  0  0  0
   -1.0550   63.3500   77.2150 C   0  0  0  0  0  0  0  0  0  0  0  0
    3.1070   57.8380   71.0350 C   0  0  0  0  0  0  0  0  0  0  0  0
    2.4570   58.1170   72.2410 C   0  0  0  0  0  0  0  0  0  0  0  0
    2.2000   59.4340   72.6280 C   0  0  0  0  0  0  0  0  0  0  0  0
    2.6300   60.4840   71.8140 C   0  0  0  0  0  0  0  0  0  0  0  0
    3.3410   60.2280   70.6420 C   0  0  0  0  0  0  0  0  0  0  0  0
    3.5910   58.9050   70.2680 C   0  0  0  0  0  0  0  0  0  0  0  0
    3.4660   56.5250   70.7160 N   0  0  0  0  0  0  0  0  0  0  0  0
    0.0133   61.7638   71.6579 H   0  0  0  0  0  0  0  0  0  0  0  0
   -0.1652   63.2070   77.8457 H   0  0  0  0  0  0  0  0  0  0  0  0
   -1.5026   64.3316   77.4296 H   0  0  0  0  0  0  0  0  0  0  0  0
   -1.7877   62.5581   77.4296 H   0  0  0  0  0  0  0  0  0  0  0  0
    2.1440   57.2885   72.8934 H   0  0  0  0  0  0  0  0  0  0  0  0
    1.6637   59.6424   73.5655 H   0  0  0  0  0  0  0  0  0  0  0  0
    3.7014   61.0592   70.0182 H   0  0  0  0  0  0  0  0  0  0  0  0
    4.1756   58.6990   69.3593 H   0  0  0  0  0  0  0  0  0  0  0  0
    3.9447   56.3236   69.8265 H   0  0  0  0  0  0  0  0  0  0  0  0
    3.2517   55.7590   71.3705 H   0  0  0  0  0  0  0  0  0  0  0  0
  2  1  2  0
  3  1  2  0
  4  1  1  0
  5  4  1  0
  6  5  2  0
  7  6  1  0
  8  7  2  0
  9  5  1  0
  9  8  1  0
 10  8  1  0
 12 11  2  0
 13 12  1  0
 14 13  2  0
 14  1  1  0
 15 14  1  0
 16 15  2  0
 16 11  1  0
 17 11  1  0
  4 18  1  0
 10 19  1  0
 10 20  1  0
 10 21  1  0
 12 22  1  0
 13 23  1  0
 15 24  1  0
 16 25  1  0
 17 26  1  0
 17 27  1  0
M  END
>  <score>  (7) 
-6.217

$$$$
=
     RDKit          3D

 27 28  0  0  0  0  0  0  0  0999 V2000
    4.2720   60.7010   72.4690 S   0  0  0  0  0  6  0  0  0  0  0  0
    5.5940   61.1420   72.8580 O   0  0  0  0  0  0  0  0  0  0  0  0
    4.0670   59.5560   71.6090 O   0  0  0  0  0  0  0  0  0  0  0  0
    3.3740   60.5590   73.8960 N   0  0  0  0  0  0  0  0  0  0  0  0
    2.6260   59.3110   73.9180 C   0  0  0  0  0  0  0  0  0  0  0  0
    3.0500   58.3080   74.6490 N   0  0  0  0  0  0  0  0  0  0  0  0
    2.1800   57.2360   74.5970 N   0  0  0  0  0  0  0  0  0  0  0  0
    1.1190   57.4970   73.8610 C   0  0  0  0  0  0  0  0  0  0  0  0
    1.0970   59.0830   73.1950 S   0  0  0  0  0  0  0  0  0  0  0  0
    0.0060   56.5490   73.6060 C   0  0  0  0  0  0  0  0  0  0  0  0
    2.1110   64.2450   70.5400 C   0  0  0  0  0  0  0  0  0  0  0  0
    1.6330   63.6750   71.7240 C   0  0  0  0  0  0  0  0  0  0  0  0
    2.3000   62.6030   72.3230 C   0  0  0  0  0  0  0  0  0  0  0  0
    3.4380   62.0760   71.7110 C   0  0  0  0  0  0  0  0  0  0  0  0
    3.8900   62.5860   70.4940 C   0  0  0  0  0  0  0  0  0  0  0  0
    3.2120   63.6580   69.9070 C   0  0  0  0  0  0  0  0  0  0  0  0
    1.3700   65.2340   69.8860 N   0  0  0  0  0  0  0  0  0  0  0  0
    3.3588   61.2620   74.6486 H   0  0  0  0  0  0  0  0  0  0  0  0
   -0.4046   56.1992   74.5647 H   0  0  0  0  0  0  0  0  0  0  0  0
   -0.7835   57.0563   73.0322 H   0  0  0  0  0  0  0  0  0  0  0  0
    0.3812   55.6888   73.0322 H   0  0  0  0  0  0  0  0  0  0  0  0
    0.7205   64.0755   72.1898 H   0  0  0  0  0  0  0  0  0  0  0  0
    1.9313   62.1784   73.2684 H   0  0  0  0  0  0  0  0  0  0  0  0
    4.7710   62.1490   70.0013 H   0  0  0  0  0  0  0  0  0  0  0  0
    3.5486   64.0455   68.9341 H   0  0  0  0  0  0  0  0  0  0  0  0
    1.7252   65.6516   69.0140 H   0  0  0  0  0  0  0  0  0  0  0  0
    0.4689   65.5449   70.2762 H   0  0  0  0  0  0  0  0  0  0  0  0
  2  1  2  0
  3  1  2  0
  4  1  1  0
  5  4  1  0
  6  5  2  0
  7  6  1  0
  8  7  2  0
  9  5  1  0
  9  8  1  0
 10  8  1  0
 12 11  2  0
 13 12  1  0
 14 13  2  0
 14  1  1  0
 15 14  1  0
 16 15  2  0
 16 11  1  0
 17 11  1  0
  4 18  1  0
 10 19  1  0
 10 20  1  0
 10 21  1  0
 12 22  1  0
 13 23  1  0
 15 24  1  0
 16 25  1  0
 17 26  1  0
 17 27  1  0
M  END
>  <score>  (8) 
-6.202

$$$$
=
     RDKit          3D

 27 28  0  0  0  0  0  0  0  0999 V2000
    2.6180   60.9410   73.1860 S   0  0  0  0  0  6  0  0  0  0  0  0
    2.2760   62.0430   74.0590 O   0  0  0  0  0  0  0  0  0  0  0  0
    3.7270   60.0560   73.4660 O   0  0  0  0  0  0  0  0  0  0  0  0
    1.1900   60.0680   72.9350 N   0  0  0  0  0  0  0  0  0  0  0  0
    1.3190   58.7060   73.4300 C   0  0  0  0  0  0  0  0  0  0  0  0
    0.7610   58.3700   74.5680 N   0  0  0  0  0  0  0  0  0  0  0  0
    0.9310   57.0270   74.8420 N   0  0  0  0  0  0  0  0  0  0  0  0
    1.5780   56.4040   73.8780 C   0  0  0  0  0  0  0  0  0  0  0  0
    2.0030   57.4130   72.5510 S   0  0  0  0  0  0  0  0  0  0  0  0
    1.9210   54.9600   73.8760 C   0  0  0  0  0  0  0  0  0  0  0  0
    3.2770   62.6040   68.9740 C   0  0  0  0  0  0  0  0  0  0  0  0
    3.3080   61.2270   69.2110 C   0  0  0  0  0  0  0  0  0  0  0  0
    3.0910   60.7150   70.4930 C   0  0  0  0  0  0  0  0  0  0  0  0
    2.8750   61.5960   71.5540 C   0  0  0  0  0  0  0  0  0  0  0  0
    2.9090   62.9760   71.3490 C   0  0  0  0  0  0  0  0  0  0  0  0
    3.1280   63.4720   70.0610 C   0  0  0  0  0  0  0  0  0  0  0  0
    3.6150   63.1090   67.7140 N   0  0  0  0  0  0  0  0  0  0  0  0
    0.3427   60.4500   72.4911 H   0  0  0  0  0  0  0  0  0  0  0  0
    2.0061   54.6019   74.9126 H   0  0  0  0  0  0  0  0  0  0  0  0
    1.1317   54.3964   73.3570 H   0  0  0  0  0  0  0  0  0  0  0  0
    2.8794   54.8115   73.3570 H   0  0  0  0  0  0  0  0  0  0  0  0
    3.5058   60.5371   68.3774 H   0  0  0  0  0  0  0  0  0  0  0  0
    3.0904   59.6284   70.6644 H   0  0  0  0  0  0  0  0  0  0  0  0
    2.7648   63.6666   72.1930 H   0  0  0  0  0  0  0  0  0  0  0  0
    3.1839   64.5587   69.8998 H   0  0  0  0  0  0  0  0  0  0  0  0
    3.5911   64.1244   67.5428 H   0  0  0  0  0  0  0  0  0  0  0  0
    3.8878   62.4654   66.9575 H   0  0  0  0  0  0  0  0  0  0  0  0
  2  1  2  0
  3  1  2  0
  4  1  1  0
  5  4  1  0
  6  5  2  0
  7  6  1  0
  8  7  2  0
  9  5  1  0
  9  8  1  0
 10  8  1  0
 12 11  2  0
 13 12  1  0
 14 13  2  0
 14  1  1  0
 15 14  1  0
 16 15  2  0
 16 11  1  0
 17 11  1  0
  4 18  1  0
 10 19  1  0
 10 20  1  0
 10 21  1  0
 12 22  1  0
 13 23  1  0
 15 24  1  0
 16 25  1  0
 17 26  1  0
 17 27  1  0
M  END
>  <score>  (9) 
-6.1

$$$$
