=
     RDKit          3D

 73 77  0  0  0  0  0  0  0  0999 V2000
   -1.0650   66.8380   68.5260 C   0  0  0  0  0  0  0  0  0  0  0  0
    0.4660   66.8460   68.5310 C   0  0  0  0  0  0  0  0  0  0  0  0
    1.0590   66.5210   69.9020 C   0  0  0  0  0  0  0  0  0  0  0  0
    1.1100   64.1820   70.7240 C   0  0  0  0  0  0  0  0  0  0  0  0
    0.1320   64.3400   71.4520 O   0  0  0  0  0  0  0  0  0  0  0  0
    1.6290   65.1910   69.9530 N   0  0  0  0  0  0  0  0  0  0  0  0
    2.4460   58.4260   72.5160 C   0  0  0  0  0  0  0  0  0  0  0  0
    3.3550   58.1360   71.4920 C   0  0  0  0  0  0  0  0  0  0  0  0
    3.6500   59.0840   70.5130 C   0  0  0  0  0  0  0  0  0  0  0  0
    3.0270   60.3250   70.5710 C   0  0  0  0  0  0  0  0  0  0  0  0
    2.1210   60.6380   71.5770 C   0  0  0  0  0  0  0  0  0  0  0  0
    1.8290   59.6810   72.5570 C   0  0  0  0  0  0  0  0  0  0  0  0
    1.5070   61.9550   71.5780 C   0  0  0  0  0  0  0  0  0  0  0  0
    1.8030   62.8570   70.6260 C   0  0  0  0  0  0  0  0  0  0  0  0
    2.7660   62.5260   69.5500 C   0  0  0  0  0  0  0  0  0  0  0  0
    3.0540   63.3280   68.6660 O   0  0  0  0  0  0  0  0  0  0  0  0
    3.3430   61.2600   69.5730 O   0  0  0  0  0  0  0  0  0  0  0  0
    0.9650   57.3020   74.0010 C   0  0  0  0  0  0  0  0  0  0  0  0
    2.2510   57.4060   73.4060 O   0  0  0  0  0  0  0  0  0  0  0  0
   -1.6690   67.2710   67.1870 C   0  0  0  0  0  0  0  0  0  0  0  0
   -1.1780   68.6440   66.7190 C   0  0  0  0  0  0  0  0  0  0  0  0
   -1.0410   68.7490   65.1980 C   0  0  0  0  0  0  0  0  0  0  0  0
    0.3690   69.1270   64.7400 C   0  0  0  0  0  0  0  0  0  0  0  0
    1.3370   68.2440   65.4050 N   0  0  0  0  0  0  0  0  0  0  0  0
    2.6420   68.8150   65.4160 C   0  0  0  0  0  0  0  0  0  0  0  0
    3.4220   68.7370   64.2540 C   0  0  0  0  0  0  0  0  0  0  0  0
    2.9300   68.2080   62.9330 C   0  0  0  0  0  0  0  0  0  0  0  0
    3.9890   67.3370   62.2490 C   0  0  0  0  0  0  0  0  0  0  0  0
    5.4240   67.8760   62.3450 C   0  0  0  0  0  0  0  0  0  0  0  0
    5.5350   69.2350   63.0310 C   0  0  0  0  0  0  0  0  0  0  0  0
    4.7140   69.2590   64.2940 C   0  0  0  0  0  0  0  0  0  0  0  0
    5.2650   69.8140   65.3940 N   0  0  0  0  0  0  0  0  0  0  0  0
    4.5320   69.8670   66.5140 C   0  0  0  0  0  0  0  0  0  0  0  0
    3.2080   69.3780   66.5960 C   0  0  0  0  0  0  0  0  0  0  0  0
    2.5320   69.4780   67.8400 C   0  0  0  0  0  0  0  0  0  0  0  0
    3.1430   70.0450   68.9580 C   0  0  0  0  0  0  0  0  0  0  0  0
    4.4390   70.5240   68.8580 C   0  0  0  0  0  0  0  0  0  0  0  0
    5.1160   70.4290   67.6410 C   0  0  0  0  0  0  0  0  0  0  0  0
   -1.4095   65.8178   68.7507 H   0  0  0  0  0  0  0  0  0  0  0  0
   -1.3969   67.5639   69.2829 H   0  0  0  0  0  0  0  0  0  0  0  0
    0.8231   66.0978   67.8080 H   0  0  0  0  0  0  0  0  0  0  0  0
    0.7913   67.8622   68.2636 H   0  0  0  0  0  0  0  0  0  0  0  0
    1.8482   67.2530   70.1286 H   0  0  0  0  0  0  0  0  0  0  0  0
    0.2447   66.5666   70.6402 H   0  0  0  0  0  0  0  0  0  0  0  0
    2.4639   64.9930   69.3833 H   0  0  0  0  0  0  0  0  0  0  0  0
    3.8417   57.1501   71.4592 H   0  0  0  0  0  0  0  0  0  0  0  0
    4.3638   58.8536   69.7084 H   0  0  0  0  0  0  0  0  0  0  0  0
    1.1142   59.9162   73.3593 H   0  0  0  0  0  0  0  0  0  0  0  0
    0.7895   62.2178   72.3693 H   0  0  0  0  0  0  0  0  0  0  0  0
    1.0660   57.3102   75.0963 H   0  0  0  0  0  0  0  0  0  0  0  0
    0.3443   58.1529   73.6837 H   0  0  0  0  0  0  0  0  0  0  0  0
    0.4891   56.3624   73.6837 H   0  0  0  0  0  0  0  0  0  0  0  0
   -1.3999   66.5251   66.4247 H   0  0  0  0  0  0  0  0  0  0  0  0
   -2.7575   67.3439   67.3280 H   0  0  0  0  0  0  0  0  0  0  0  0
   -1.8947   69.4061   67.0589 H   0  0  0  0  0  0  0  0  0  0  0  0
   -0.1771   68.7972   67.1488 H   0  0  0  0  0  0  0  0  0  0  0  0
   -1.3020   67.7760   64.7563 H   0  0  0  0  0  0  0  0  0  0  0  0
   -1.7165   69.5509   64.8655 H   0  0  0  0  0  0  0  0  0  0  0  0
    0.4478   69.0069   63.6494 H   0  0  0  0  0  0  0  0  0  0  0  0
    0.5782   70.1746   65.0021 H   0  0  0  0  0  0  0  0  0  0  0  0
    1.1016   67.3276   65.8120 H   0  0  0  0  0  0  0  0  0  0  0  0
    2.0263   67.6045   63.1035 H   0  0  0  0  0  0  0  0  0  0  0  0
    2.7106   69.0640   62.2779 H   0  0  0  0  0  0  0  0  0  0  0  0
    3.9656   66.3405   62.7143 H   0  0  0  0  0  0  0  0  0  0  0  0
    3.7342   67.3215   61.1790 H   0  0  0  0  0  0  0  0  0  0  0  0
    6.0275   67.1523   62.9125 H   0  0  0  0  0  0  0  0  0  0  0  0
    5.7815   68.0113   61.3136 H   0  0  0  0  0  0  0  0  0  0  0  0
    6.5885   69.4291   63.2807 H   0  0  0  0  0  0  0  0  0  0  0  0
    5.1575   70.0097   62.3474 H   0  0  0  0  0  0  0  0  0  0  0  0
    1.5026   69.0996   67.9242 H   0  0  0  0  0  0  0  0  0  0  0  0
    2.5999   70.1114   69.9122 H   0  0  0  0  0  0  0  0  0  0  0  0
    4.9312   70.9761   69.7317 H   0  0  0  0  0  0  0  0  0  0  0  0
    6.1450   70.8117   67.5728 H   0  0  0  0  0  0  0  0  0  0  0  0
  2  1  1  0
  3  2  1  0
  5  4  2  0
  6  4  1  0
  6  3  1  0
  8  7  2  0
  9  8  1  0
 10  9  2  0
 11 10  1  0
 12  7  1  0
 12 11  2  0
 13 11  1  0
 14  4  1  0
 14 13  2  0
 15 14  1  0
 16 15  2  0
 17 15  1  0
 17 10  1  0
 19 18  1  0
 19  7  1  0
 20  1  1  0
 21 20  1  0
 22 21  1  0
 23 22  1  0
 24 23  1  0
 25 24  1  0
 26 25  1  0
 27 26  1  0
 28 27  1  0
 29 28  1  0
 30 29  1  0
 31 26  2  0
 31 30  1  0
 32 31  1  0
 33 32  2  0
 34 33  1  0
 34 25  2  0
 35 34  1  0
 36 35  2  0
 37 36  1  0
 38 37  2  0
 38 33  1  0
  1 39  1  0
  1 40  1  0
  2 41  1  0
  2 42  1  0
  3 43  1  0
  3 44  1  0
  6 45  1  0
  8 46  1  0
  9 47  1  0
 12 48  1  0
 13 49  1  0
 18 50  1  0
 18 51  1  0
 18 52  1  0
 20 53  1  0
 20 54  1  0
 21 55  1  0
 21 56  1  0
 22 57  1  0
 22 58  1  0
 23 59  1  0
 23 60  1  0
 24 61  1  0
 27 62  1  0
 27 63  1  0
 28 64  1  0
 28 65  1  0
 29 66  1  0
 29 67  1  0
 30 68  1  0
 30 69  1  0
 35 70  1  0
 36 71  1  0
 37 72  1  0
 38 73  1  0
M  END
>  <score>  (1) 
-12.057

$$$$
=
     RDKit          3D

 73 77  0  0  0  0  0  0  0  0999 V2000
    0.9060   64.6750   70.7040 C   0  0  0  0  0  0  0  0  0  0  0  0
    2.4280   64.6150   70.5490 C   0  0  0  0  0  0  0  0  0  0  0  0
    2.8930   63.4370   69.6900 C   0  0  0  0  0  0  0  0  0  0  0  0
    3.4370   61.2930   70.8130 C   0  0  0  0  0  0  0  0  0  0  0  0
    4.6430   61.5280   70.8340 O   0  0  0  0  0  0  0  0  0  0  0  0
    2.5250   62.1600   70.2650 N   0  0  0  0  0  0  0  0  0  0  0  0
   -0.0740   58.0050   74.6840 C   0  0  0  0  0  0  0  0  0  0  0  0
    0.2900   56.7390   74.2090 C   0  0  0  0  0  0  0  0  0  0  0  0
    1.1990   56.6070   73.1620 C   0  0  0  0  0  0  0  0  0  0  0  0
    1.7410   57.7540   72.5940 C   0  0  0  0  0  0  0  0  0  0  0  0
    1.3960   59.0220   73.0460 C   0  0  0  0  0  0  0  0  0  0  0  0
    0.4820   59.1480   74.0990 C   0  0  0  0  0  0  0  0  0  0  0  0
    2.0010   60.1790   72.4070 C   0  0  0  0  0  0  0  0  0  0  0  0
    2.8760   60.0330   71.3970 C   0  0  0  0  0  0  0  0  0  0  0  0
    3.2450   58.6830   70.9110 C   0  0  0  0  0  0  0  0  0  0  0  0
    4.0390   58.5190   69.9890 O   0  0  0  0  0  0  0  0  0  0  0  0
    2.6550   57.5920   71.5400 O   0  0  0  0  0  0  0  0  0  0  0  0
   -2.1090   57.1420   75.5680 C   0  0  0  0  0  0  0  0  0  0  0  0
   -0.9750   57.9870   75.7140 O   0  0  0  0  0  0  0  0  0  0  0  0
    0.3150   66.0410   70.3440 C   0  0  0  0  0  0  0  0  0  0  0  0
    1.2170   66.8640   69.4200 C   0  0  0  0  0  0  0  0  0  0  0  0
    0.4680   67.4720   68.2310 C   0  0  0  0  0  0  0  0  0  0  0  0
    1.3110   67.5460   66.9570 C   0  0  0  0  0  0  0  0  0  0  0  0
    1.5310   68.9590   66.6140 N   0  0  0  0  0  0  0  0  0  0  0  0
    2.8730   69.1910   66.1970 C   0  0  0  0  0  0  0  0  0  0  0  0
    3.7990   69.6630   67.1380 C   0  0  0  0  0  0  0  0  0  0  0  0
    3.5150   69.8160   68.6090 C   0  0  0  0  0  0  0  0  0  0  0  0
    4.1160   71.1110   69.1630 C   0  0  0  0  0  0  0  0  0  0  0  0
    5.5210   71.4440   68.6400 C   0  0  0  0  0  0  0  0  0  0  0  0
    6.1130   70.3770   67.7230 C   0  0  0  0  0  0  0  0  0  0  0  0
    5.0960   69.9310   66.7050 C   0  0  0  0  0  0  0  0  0  0  0  0
    5.5060   69.7840   65.4270 N   0  0  0  0  0  0  0  0  0  0  0  0
    4.6170   69.3590   64.5200 C   0  0  0  0  0  0  0  0  0  0  0  0
    3.2750   69.0480   64.8380 C   0  0  0  0  0  0  0  0  0  0  0  0
    2.4190   68.6180   63.7900 C   0  0  0  0  0  0  0  0  0  0  0  0
    2.8780   68.4940   62.4790 C   0  0  0  0  0  0  0  0  0  0  0  0
    4.1980   68.7980   62.1870 C   0  0  0  0  0  0  0  0  0  0  0  0
    5.0480   69.2260   63.2070 C   0  0  0  0  0  0  0  0  0  0  0  0
    0.4576   63.9160   70.0460 H   0  0  0  0  0  0  0  0  0  0  0  0
    0.6785   64.4902   71.7642 H   0  0  0  0  0  0  0  0  0  0  0  0
    2.7700   65.5488   70.0789 H   0  0  0  0  0  0  0  0  0  0  0  0
    2.8571   64.4812   71.5530 H   0  0  0  0  0  0  0  0  0  0  0  0
    2.4339   63.5222   68.6940 H   0  0  0  0  0  0  0  0  0  0  0  0
    3.9907   63.4760   69.6304 H   0  0  0  0  0  0  0  0  0  0  0  0
    1.5312   61.8893   70.2626 H   0  0  0  0  0  0  0  0  0  0  0  0
   -0.1465   55.8394   74.6675 H   0  0  0  0  0  0  0  0  0  0  0  0
    1.4833   55.6114   72.7907 H   0  0  0  0  0  0  0  0  0  0  0  0
    0.2009   60.1459   74.4666 H   0  0  0  0  0  0  0  0  0  0  0  0
    1.7389   61.1890   72.7551 H   0  0  0  0  0  0  0  0  0  0  0  0
   -2.4869   56.8604   76.5620 H   0  0  0  0  0  0  0  0  0  0  0  0
   -2.8954   57.6761   75.0145 H   0  0  0  0  0  0  0  0  0  0  0  0
   -1.8221   56.2357   75.0145 H   0  0  0  0  0  0  0  0  0  0  0  0
   -0.6500   65.8826   69.8403 H   0  0  0  0  0  0  0  0  0  0  0  0
    0.2041   66.6064   71.2810 H   0  0  0  0  0  0  0  0  0  0  0  0
    1.6652   67.6804   70.0053 H   0  0  0  0  0  0  0  0  0  0  0  0
    1.9776   66.1816   69.0129 H   0  0  0  0  0  0  0  0  0  0  0  0
   -0.4202   66.8562   68.0263 H   0  0  0  0  0  0  0  0  0  0  0  0
    0.2035   68.5036   68.5063 H   0  0  0  0  0  0  0  0  0  0  0  0
    2.2791   67.0516   67.1254 H   0  0  0  0  0  0  0  0  0  0  0  0
    0.7873   67.0392   66.1331 H   0  0  0  0  0  0  0  0  0  0  0  0
    0.8061   69.6887   66.6684 H   0  0  0  0  0  0  0  0  0  0  0  0
    2.4260   69.8323   68.7633 H   0  0  0  0  0  0  0  0  0  0  0  0
    3.9721   68.9678   69.1396 H   0  0  0  0  0  0  0  0  0  0  0  0
    3.4457   71.9412   68.8957 H   0  0  0  0  0  0  0  0  0  0  0  0
    4.2159   70.9664   70.2489 H   0  0  0  0  0  0  0  0  0  0  0  0
    5.4663   72.3892   68.0800 H   0  0  0  0  0  0  0  0  0  0  0  0
    6.1798   71.5086   69.5186 H   0  0  0  0  0  0  0  0  0  0  0  0
    6.9880   70.7928   67.2020 H   0  0  0  0  0  0  0  0  0  0  0  0
    6.4098   69.5103   68.3319 H   0  0  0  0  0  0  0  0  0  0  0  0
    1.3700   68.3772   64.0173 H   0  0  0  0  0  0  0  0  0  0  0  0
    2.1975   68.1575   61.6829 H   0  0  0  0  0  0  0  0  0  0  0  0
    4.5733   68.7024   61.1574 H   0  0  0  0  0  0  0  0  0  0  0  0
    6.0935   69.4658   62.9631 H   0  0  0  0  0  0  0  0  0  0  0  0
  2  1  1  0
  3  2  1  0
  5  4  2  0
  6  4  1  0
  6  3  1  0
  8  7  2  0
  9  8  1  0
 10  9  2  0
 11 10  1  0
 12  7  1  0
 12 11  2  0
 13 11  1  0
 14  4  1  0
 14 13  2  0
 15 14  1  0
 16 15  2  0
 17 15  1  0
 17 10  1  0
 19 18  1  0
 19  7  1  0
 20  1  1  0
 21 20  1  0
 22 21  1  0
 23 22  1  0
 24 23  1  0
 25 24  1  0
 26 25  1  0
 27 26  1  0
 28 27  1  0
 29 28  1  0
 30 29  1  0
 31 26  2  0
 31 30  1  0
 32 31  1  0
 33 32  2  0
 34 33  1  0
 34 25  2  0
 35 34  1  0
 36 35  2  0
 37 36  1  0
 38 37  2  0
 38 33  1  0
  1 39  1  0
  1 40  1  0
  2 41  1  0
  2 42  1  0
  3 43  1  0
  3 44  1  0
  6 45  1  0
  8 46  1  0
  9 47  1  0
 12 48  1  0
 13 49  1  0
 18 50  1  0
 18 51  1  0
 18 52  1  0
 20 53  1  0
 20 54  1  0
 21 55  1  0
 21 56  1  0
 22 57  1  0
 22 58  1  0
 23 59  1  0
 23 60  1  0
 24 61  1  0
 27 62  1  0
 27 63  1  0
 28 64  1  0
 28 65  1  0
 29 66  1  0
 29 67  1  0
 30 68  1  0
 30 69  1  0
 35 70  1  0
 36 71  1  0
 37 72  1  0
 38 73  1  0
M  END
>  <score>  (2) 
-11.95

$$$$
=
     RDKit          3D

 73 77  0  0  0  0  0  0  0  0999 V2000
    0.7650   64.7230   70.6530 C   0  0  0  0  0  0  0  0  0  0  0  0
    2.2630   64.6100   70.3570 C   0  0  0  0  0  0  0  0  0  0  0  0
    2.6820   63.2010   69.9370 C   0  0  0  0  0  0  0  0  0  0  0  0
    2.5480   61.4130   71.6510 C   0  0  0  0  0  0  0  0  0  0  0  0
    3.7300   61.5300   71.9680 O   0  0  0  0  0  0  0  0  0  0  0  0
    1.9690   62.1750   70.6680 N   0  0  0  0  0  0  0  0  0  0  0  0
    1.0440   55.8720   73.9220 C   0  0  0  0  0  0  0  0  0  0  0  0
   -0.2330   56.2180   74.3800 C   0  0  0  0  0  0  0  0  0  0  0  0
   -0.7210   57.5130   74.2180 C   0  0  0  0  0  0  0  0  0  0  0  0
    0.0820   58.4590   73.5910 C   0  0  0  0  0  0  0  0  0  0  0  0
    1.3520   58.1420   73.1270 C   0  0  0  0  0  0  0  0  0  0  0  0
    1.8370   56.8390   73.2940 C   0  0  0  0  0  0  0  0  0  0  0  0
    2.1380   59.1800   72.4800 C   0  0  0  0  0  0  0  0  0  0  0  0
    1.6520   60.4240   72.3310 C   0  0  0  0  0  0  0  0  0  0  0  0
    0.2990   60.7670   72.8270 C   0  0  0  0  0  0  0  0  0  0  0  0
   -0.1710   61.8950   72.7080 O   0  0  0  0  0  0  0  0  0  0  0  0
   -0.4350   59.7560   73.4400 O   0  0  0  0  0  0  0  0  0  0  0  0
    0.3780   53.5880   73.9810 C   0  0  0  0  0  0  0  0  0  0  0  0
    1.3930   54.5690   74.1480 O   0  0  0  0  0  0  0  0  0  0  0  0
    0.1710   66.0800   70.2600 C   0  0  0  0  0  0  0  0  0  0  0  0
    1.1090   66.9180   69.3880 C   0  0  0  0  0  0  0  0  0  0  0  0
    0.4000   67.5770   68.2000 C   0  0  0  0  0  0  0  0  0  0  0  0
    1.2490   67.6090   66.9280 C   0  0  0  0  0  0  0  0  0  0  0  0
    1.4870   69.0100   66.5520 N   0  0  0  0  0  0  0  0  0  0  0  0
    2.8360   69.2170   66.1420 C   0  0  0  0  0  0  0  0  0  0  0  0
    3.7680   69.6650   67.0880 C   0  0  0  0  0  0  0  0  0  0  0  0
    3.4800   69.8170   68.5580 C   0  0  0  0  0  0  0  0  0  0  0  0
    4.1050   71.0980   69.1210 C   0  0  0  0  0  0  0  0  0  0  0  0
    5.5180   71.4040   68.6050 C   0  0  0  0  0  0  0  0  0  0  0  0
    6.0930   70.3300   67.6860 C   0  0  0  0  0  0  0  0  0  0  0  0
    5.0720   69.9090   66.6620 C   0  0  0  0  0  0  0  0  0  0  0  0
    5.4840   69.7590   65.3850 N   0  0  0  0  0  0  0  0  0  0  0  0
    4.5900   69.3560   64.4720 C   0  0  0  0  0  0  0  0  0  0  0  0
    3.2400   69.0720   64.7830 C   0  0  0  0  0  0  0  0  0  0  0  0
    2.3810   68.6630   63.7300 C   0  0  0  0  0  0  0  0  0  0  0  0
    2.8430   68.5360   62.4200 C   0  0  0  0  0  0  0  0  0  0  0  0
    4.1700   68.8140   62.1350 C   0  0  0  0  0  0  0  0  0  0  0  0
    5.0240   69.2210   63.1610 C   0  0  0  0  0  0  0  0  0  0  0  0
    0.2381   63.9359   70.0937 H   0  0  0  0  0  0  0  0  0  0  0  0
    0.6382   64.6140   71.7402 H   0  0  0  0  0  0  0  0  0  0  0  0
    2.5138   65.3076   69.5443 H   0  0  0  0  0  0  0  0  0  0  0  0
    2.8019   64.8517   71.2850 H   0  0  0  0  0  0  0  0  0  0  0  0
    2.4782   63.0767   68.8632 H   0  0  0  0  0  0  0  0  0  0  0  0
    3.7537   63.0886   70.1582 H   0  0  0  0  0  0  0  0  0  0  0  0
    0.9786   62.0089   70.4389 H   0  0  0  0  0  0  0  0  0  0  0  0
   -0.8580   55.4590   74.8732 H   0  0  0  0  0  0  0  0  0  0  0  0
   -1.7243   57.7822   74.5799 H   0  0  0  0  0  0  0  0  0  0  0  0
    2.8416   56.5755   72.9315 H   0  0  0  0  0  0  0  0  0  0  0  0
    3.1454   58.9436   72.1069 H   0  0  0  0  0  0  0  0  0  0  0  0
    0.0286   53.2503   74.9678 H   0  0  0  0  0  0  0  0  0  0  0  0
   -0.4642   54.0231   73.4230 H   0  0  0  0  0  0  0  0  0  0  0  0
    0.7842   52.7315   73.4230 H   0  0  0  0  0  0  0  0  0  0  0  0
   -0.7615   65.9056   69.7032 H   0  0  0  0  0  0  0  0  0  0  0  0
   -0.0021   66.6429   71.1891 H   0  0  0  0  0  0  0  0  0  0  0  0
    1.5539   67.7075   70.0115 H   0  0  0  0  0  0  0  0  0  0  0  0
    1.8699   66.2374   68.9783 H   0  0  0  0  0  0  0  0  0  0  0  0
   -0.5225   67.0161   67.9895 H   0  0  0  0  0  0  0  0  0  0  0  0
    0.1967   68.6208   68.4813 H   0  0  0  0  0  0  0  0  0  0  0  0
    2.2104   67.1074   67.1126 H   0  0  0  0  0  0  0  0  0  0  0  0
    0.7229   67.0881   66.1145 H   0  0  0  0  0  0  0  0  0  0  0  0
    0.7696   69.7485   66.5812 H   0  0  0  0  0  0  0  0  0  0  0  0
    2.3908   69.8547   68.7072 H   0  0  0  0  0  0  0  0  0  0  0  0
    3.9171   68.9573   69.0870 H   0  0  0  0  0  0  0  0  0  0  0  0
    3.4528   71.9429   68.8548 H   0  0  0  0  0  0  0  0  0  0  0  0
    4.1972   70.9470   70.2067 H   0  0  0  0  0  0  0  0  0  0  0  0
    5.4846   72.3525   68.0489 H   0  0  0  0  0  0  0  0  0  0  0  0
    6.1740   71.4507   69.4868 H   0  0  0  0  0  0  0  0  0  0  0  0
    6.9783   70.7308   67.1707 H   0  0  0  0  0  0  0  0  0  0  0  0
    6.3703   69.4549   68.2920 H   0  0  0  0  0  0  0  0  0  0  0  0
    1.3267   68.4411   63.9519 H   0  0  0  0  0  0  0  0  0  0  0  0
    2.1591   68.2176   61.6195 H   0  0  0  0  0  0  0  0  0  0  0  0
    4.5480   68.7146   61.1068 H   0  0  0  0  0  0  0  0  0  0  0  0
    6.0749   69.4419   62.9227 H   0  0  0  0  0  0  0  0  0  0  0  0
  2  1  1  0
  3  2  1  0
  5  4  2  0
  6  4  1  0
  6  3  1  0
  8  7  2  0
  9  8  1  0
 10  9  2  0
 11 10  1  0
 12  7  1  0
 12 11  2  0
 13 11  1  0
 14  4  1  0
 14 13  2  0
 15 14  1  0
 16 15  2  0
 17 15  1  0
 17 10  1  0
 19 18  1  0
 19  7  1  0
 20  1  1  0
 21 20  1  0
 22 21  1  0
 23 22  1  0
 24 23  1  0
 25 24  1  0
 26 25  1  0
 27 26  1  0
 28 27  1  0
 29 28  1  0
 30 29  1  0
 31 26  2  0
 31 30  1  0
 32 31  1  0
 33 32  2  0
 34 33  1  0
 34 25  2  0
 35 34  1  0
 36 35  2  0
 37 36  1  0
 38 37  2  0
 38 33  1  0
  1 39  1  0
  1 40  1  0
  2 41  1  0
  2 42  1  0
  3 43  1  0
  3 44  1  0
  6 45  1  0
  8 46  1  0
  9 47  1  0
 12 48  1  0
 13 49  1  0
 18 50  1  0
 18 51  1  0
 18 52  1  0
 20 53  1  0
 20 54  1  0
 21 55  1  0
 21 56  1  0
 22 57  1  0
 22 58  1  0
 23 59  1  0
 23 60  1  0
 24 61  1  0
 27 62  1  0
 27 63  1  0
 28 64  1  0
 28 65  1  0
 29 66  1  0
 29 67  1  0
 30 68  1  0
 30 69  1  0
 35 70  1  0
 36 71  1  0
 37 72  1  0
 38 73  1  0
M  END
>  <score>  (3) 
-11.851

$$$$
=
     RDKit          3D

 73 77  0  0  0  0  0  0  0  0999 V2000
   -0.4670   67.0630   67.7640 C   0  0  0  0  0  0  0  0  0  0  0  0
   -0.4990   66.4830   69.1800 C   0  0  0  0  0  0  0  0  0  0  0  0
    0.8770   66.4690   69.8480 C   0  0  0  0  0  0  0  0  0  0  0  0
    1.1540   64.2210   70.8610 C   0  0  0  0  0  0  0  0  0  0  0  0
    0.3870   64.4670   71.7900 O   0  0  0  0  0  0  0  0  0  0  0  0
    1.4540   65.1410   69.8880 N   0  0  0  0  0  0  0  0  0  0  0  0
    2.3780   58.4010   72.5190 C   0  0  0  0  0  0  0  0  0  0  0  0
    3.2630   58.1100   71.4740 C   0  0  0  0  0  0  0  0  0  0  0  0
    3.5660   59.0690   70.5100 C   0  0  0  0  0  0  0  0  0  0  0  0
    2.9740   60.3240   70.6020 C   0  0  0  0  0  0  0  0  0  0  0  0
    2.0920   60.6380   71.6280 C   0  0  0  0  0  0  0  0  0  0  0  0
    1.7920   59.6700   72.5940 C   0  0  0  0  0  0  0  0  0  0  0  0
    1.5100   61.9700   71.6650 C   0  0  0  0  0  0  0  0  0  0  0  0
    1.8130   62.8830   70.7260 C   0  0  0  0  0  0  0  0  0  0  0  0
    2.7500   62.5510   69.6290 C   0  0  0  0  0  0  0  0  0  0  0  0
    3.0430   63.3630   68.7550 O   0  0  0  0  0  0  0  0  0  0  0  0
    3.2970   61.2710   69.6180 O   0  0  0  0  0  0  0  0  0  0  0  0
    0.9060   56.7250   73.3490 C   0  0  0  0  0  0  0  0  0  0  0  0
    2.1730   57.3690   73.3920 O   0  0  0  0  0  0  0  0  0  0  0  0
   -1.6390   68.0050   67.4690 C   0  0  0  0  0  0  0  0  0  0  0  0
   -1.2540   69.1830   66.5690 C   0  0  0  0  0  0  0  0  0  0  0  0
   -0.8960   68.7590   65.1420 C   0  0  0  0  0  0  0  0  0  0  0  0
    0.5470   69.0870   64.7540 C   0  0  0  0  0  0  0  0  0  0  0  0
    1.4550   68.2400   65.5420 N   0  0  0  0  0  0  0  0  0  0  0  0
    2.7760   68.7700   65.5610 C   0  0  0  0  0  0  0  0  0  0  0  0
    3.2790   69.2860   66.7630 C   0  0  0  0  0  0  0  0  0  0  0  0
    2.5690   69.1980   68.0890 C   0  0  0  0  0  0  0  0  0  0  0  0
    2.6970   70.5050   68.8790 C   0  0  0  0  0  0  0  0  0  0  0  0
    4.0860   71.1570   68.8220 C   0  0  0  0  0  0  0  0  0  0  0  0
    5.1260   70.3430   68.0580 C   0  0  0  0  0  0  0  0  0  0  0  0
    4.5550   69.8440   66.7560 C   0  0  0  0  0  0  0  0  0  0  0  0
    5.3270   69.9370   65.6530 N   0  0  0  0  0  0  0  0  0  0  0  0
    4.8400   69.4690   64.4960 C   0  0  0  0  0  0  0  0  0  0  0  0
    3.5630   68.8750   64.3770 C   0  0  0  0  0  0  0  0  0  0  0  0
    3.1480   68.4250   63.0970 C   0  0  0  0  0  0  0  0  0  0  0  0
    3.9700   68.5550   61.9770 C   0  0  0  0  0  0  0  0  0  0  0  0
    5.2210   69.1340   62.1130 C   0  0  0  0  0  0  0  0  0  0  0  0
    5.6390   69.5840   63.3660 C   0  0  0  0  0  0  0  0  0  0  0  0
    0.4714   67.6226   67.6369 H   0  0  0  0  0  0  0  0  0  0  0  0
   -0.5434   66.2181   67.0637 H   0  0  0  0  0  0  0  0  0  0  0  0
   -1.1807   67.0908   69.7930 H   0  0  0  0  0  0  0  0  0  0  0  0
   -0.8391   65.4398   69.1021 H   0  0  0  0  0  0  0  0  0  0  0  0
    1.5509   67.1309   69.2843 H   0  0  0  0  0  0  0  0  0  0  0  0
    0.7516   66.8133   70.8852 H   0  0  0  0  0  0  0  0  0  0  0  0
    2.1217   64.8743   69.1505 H   0  0  0  0  0  0  0  0  0  0  0  0
    3.7242   57.1132   71.4134 H   0  0  0  0  0  0  0  0  0  0  0  0
    4.2617   58.8375   69.6900 H   0  0  0  0  0  0  0  0  0  0  0  0
    1.0957   59.9067   73.4120 H   0  0  0  0  0  0  0  0  0  0  0  0
    0.8118   62.2343   72.4729 H   0  0  0  0  0  0  0  0  0  0  0  0
    0.5513   56.5447   74.3745 H   0  0  0  0  0  0  0  0  0  0  0  0
    0.1863   57.3667   72.8196 H   0  0  0  0  0  0  0  0  0  0  0  0
    1.0002   55.7654   72.8196 H   0  0  0  0  0  0  0  0  0  0  0  0
   -2.4334   67.4296   66.9711 H   0  0  0  0  0  0  0  0  0  0  0  0
   -1.9725   68.4231   68.4302 H   0  0  0  0  0  0  0  0  0  0  0  0
   -2.1031   69.8808   66.5239 H   0  0  0  0  0  0  0  0  0  0  0  0
   -0.3589   69.6497   67.0060 H   0  0  0  0  0  0  0  0  0  0  0  0
   -1.0421   67.6723   65.0542 H   0  0  0  0  0  0  0  0  0  0  0  0
   -1.5511   69.3232   64.4619 H   0  0  0  0  0  0  0  0  0  0  0  0
    0.6952   68.8901   63.6820 H   0  0  0  0  0  0  0  0  0  0  0  0
    0.7561   70.1478   64.9566 H   0  0  0  0  0  0  0  0  0  0  0  0
    1.1710   67.3728   66.0198 H   0  0  0  0  0  0  0  0  0  0  0  0
    1.5036   68.9899   67.9115 H   0  0  0  0  0  0  0  0  0  0  0  0
    3.0314   68.3913   68.6767 H   0  0  0  0  0  0  0  0  0  0  0  0
    1.9657   71.2214   68.4766 H   0  0  0  0  0  0  0  0  0  0  0  0
    2.5176   70.2489   69.9336 H   0  0  0  0  0  0  0  0  0  0  0  0
    3.9875   72.1374   68.3330 H   0  0  0  0  0  0  0  0  0  0  0  0
    4.4431   71.2334   69.8596 H   0  0  0  0  0  0  0  0  0  0  0  0
    6.0004   70.9772   67.8501 H   0  0  0  0  0  0  0  0  0  0  0  0
    5.4209   69.4786   68.6710 H   0  0  0  0  0  0  0  0  0  0  0  0
    2.1559   67.9632   62.9851 H   0  0  0  0  0  0  0  0  0  0  0  0
    3.6272   68.2005   60.9937 H   0  0  0  0  0  0  0  0  0  0  0  0
    5.8807   69.2384   61.2390 H   0  0  0  0  0  0  0  0  0  0  0  0
    6.6333   70.0446   63.4617 H   0  0  0  0  0  0  0  0  0  0  0  0
  2  1  1  0
  3  2  1  0
  5  4  2  0
  6  4  1  0
  6  3  1  0
  8  7  2  0
  9  8  1  0
 10  9  2  0
 11 10  1  0
 12  7  1  0
 12 11  2  0
 13 11  1  0
 14  4  1  0
 14 13  2  0
 15 14  1  0
 16 15  2  0
 17 15  1  0
 17 10  1  0
 19 18  1  0
 19  7  1  0
 20  1  1  0
 21 20  1  0
 22 21  1  0
 23 22  1  0
 24 23  1  0
 25 24  1  0
 26 25  1  0
 27 26  1  0
 28 27  1  0
 29 28  1  0
 30 29  1  0
 31 26  2  0
 31 30  1  0
 32 31  1  0
 33 32  2  0
 34 33  1  0
 34 25  2  0
 35 34  1  0
 36 35  2  0
 37 36  1  0
 38 37  2  0
 38 33  1  0
  1 39  1  0
  1 40  1  0
  2 41  1  0
  2 42  1  0
  3 43  1  0
  3 44  1  0
  6 45  1  0
  8 46  1  0
  9 47  1  0
 12 48  1  0
 13 49  1  0
 18 50  1  0
 18 51  1  0
 18 52  1  0
 20 53  1  0
 20 54  1  0
 21 55  1  0
 21 56  1  0
 22 57  1  0
 22 58  1  0
 23 59  1  0
 23 60  1  0
 24 61  1  0
 27 62  1  0
 27 63  1  0
 28 64  1  0
 28 65  1  0
 29 66  1  0
 29 67  1  0
 30 68  1  0
 30 69  1  0
 35 70  1  0
 36 71  1  0
 37 72  1  0
 38 73  1  0
M  END
>  <score>  (4) 
-11.782

$$$$
=
     RDKit          3D

 73 77  0  0  0  0  0  0  0  0999 V2000
    0.8740   64.7330   70.7160 C   0  0  0  0  0  0  0  0  0  0  0  0
    2.3370   64.5550   70.3000 C   0  0  0  0  0  0  0  0  0  0  0  0
    2.6650   63.1230   69.8750 C   0  0  0  0  0  0  0  0  0  0  0  0
    2.4940   61.3490   71.6000 C   0  0  0  0  0  0  0  0  0  0  0  0
    3.6920   61.3980   71.8720 O   0  0  0  0  0  0  0  0  0  0  0  0
    1.9230   62.1410   70.6370 N   0  0  0  0  0  0  0  0  0  0  0  0
    0.8820   55.9910   74.2110 C   0  0  0  0  0  0  0  0  0  0  0  0
   -0.4090   56.3720   74.5960 C   0  0  0  0  0  0  0  0  0  0  0  0
   -0.8850   57.6530   74.3220 C   0  0  0  0  0  0  0  0  0  0  0  0
   -0.0550   58.5490   73.6580 C   0  0  0  0  0  0  0  0  0  0  0  0
    1.2300   58.1960   73.2650 C   0  0  0  0  0  0  0  0  0  0  0  0
    1.7020   56.9070   73.5440 C   0  0  0  0  0  0  0  0  0  0  0  0
    2.0440   59.1830   72.5730 C   0  0  0  0  0  0  0  0  0  0  0  0
    1.5690   60.4140   72.3170 C   0  0  0  0  0  0  0  0  0  0  0  0
    0.2010   60.7940   72.7360 C   0  0  0  0  0  0  0  0  0  0  0  0
   -0.2590   61.9120   72.5190 O   0  0  0  0  0  0  0  0  0  0  0  0
   -0.5590   59.8320   73.3940 O   0  0  0  0  0  0  0  0  0  0  0  0
    0.4450   53.6650   73.9620 C   0  0  0  0  0  0  0  0  0  0  0  0
    1.2170   54.7070   74.5440 O   0  0  0  0  0  0  0  0  0  0  0  0
    0.3100   66.1140   70.3670 C   0  0  0  0  0  0  0  0  0  0  0  0
    1.2590   66.9530   69.5070 C   0  0  0  0  0  0  0  0  0  0  0  0
    0.5910   67.5240   68.2530 C   0  0  0  0  0  0  0  0  0  0  0  0
    1.5210   67.5760   67.0400 C   0  0  0  0  0  0  0  0  0  0  0  0
    1.6250   68.9680   66.5800 N   0  0  0  0  0  0  0  0  0  0  0  0
    2.9680   69.3100   66.2530 C   0  0  0  0  0  0  0  0  0  0  0  0
    3.4290   69.0650   64.9520 C   0  0  0  0  0  0  0  0  0  0  0  0
    2.5600   68.5880   63.8180 C   0  0  0  0  0  0  0  0  0  0  0  0
    3.2760   67.5300   62.9720 C   0  0  0  0  0  0  0  0  0  0  0  0
    4.7590   67.8190   62.7000 C   0  0  0  0  0  0  0  0  0  0  0  0
    5.2440   69.1590   63.2470 C   0  0  0  0  0  0  0  0  0  0  0  0
    4.7590   69.3600   64.6600 C   0  0  0  0  0  0  0  0  0  0  0  0
    5.6360   69.8460   65.5640 N   0  0  0  0  0  0  0  0  0  0  0  0
    5.2060   70.0570   66.8150 C   0  0  0  0  0  0  0  0  0  0  0  0
    3.8790   69.8030   67.2320 C   0  0  0  0  0  0  0  0  0  0  0  0
    3.5420   70.0530   68.5870 C   0  0  0  0  0  0  0  0  0  0  0  0
    4.4820   70.5410   69.4940 C   0  0  0  0  0  0  0  0  0  0  0  0
    5.7770   70.7890   69.0670 C   0  0  0  0  0  0  0  0  0  0  0  0
    6.1220   70.5430   67.7380 C   0  0  0  0  0  0  0  0  0  0  0  0
    0.2698   63.9693   70.2043 H   0  0  0  0  0  0  0  0  0  0  0  0
    0.8309   64.6298   71.8103 H   0  0  0  0  0  0  0  0  0  0  0  0
    2.5462   65.2283   69.4557 H   0  0  0  0  0  0  0  0  0  0  0  0
    2.9600   64.7903   71.1755 H   0  0  0  0  0  0  0  0  0  0  0  0
    2.4180   63.0047   68.8096 H   0  0  0  0  0  0  0  0  0  0  0  0
    3.7361   62.9537   70.0598 H   0  0  0  0  0  0  0  0  0  0  0  0
    0.9167   62.0318   70.4465 H   0  0  0  0  0  0  0  0  0  0  0  0
   -1.0548   55.6524   75.1205 H   0  0  0  0  0  0  0  0  0  0  0  0
   -1.8997   57.9498   74.6258 H   0  0  0  0  0  0  0  0  0  0  0  0
    2.7176   56.6151   73.2385 H   0  0  0  0  0  0  0  0  0  0  0  0
    3.0631   58.9181   72.2546 H   0  0  0  0  0  0  0  0  0  0  0  0
   -0.0069   53.0550   74.7580 H   0  0  0  0  0  0  0  0  0  0  0  0
   -0.3494   54.1015   73.3388 H   0  0  0  0  0  0  0  0  0  0  0  0
    1.0939   53.0321   73.3388 H   0  0  0  0  0  0  0  0  0  0  0  0
   -0.6326   65.9778   69.8165 H   0  0  0  0  0  0  0  0  0  0  0  0
    0.1613   66.6551   71.3131 H   0  0  0  0  0  0  0  0  0  0  0  0
    1.6344   67.7895   70.1148 H   0  0  0  0  0  0  0  0  0  0  0  0
    2.0697   66.2892   69.1721 H   0  0  0  0  0  0  0  0  0  0  0  0
   -0.2751   66.8941   68.0017 H   0  0  0  0  0  0  0  0  0  0  0  0
    0.2991   68.5593   68.4832 H   0  0  0  0  0  0  0  0  0  0  0  0
    2.5173   67.2048   67.3222 H   0  0  0  0  0  0  0  0  0  0  0  0
    1.1178   66.9458   66.2336 H   0  0  0  0  0  0  0  0  0  0  0  0
    0.8269   69.6147   66.5038 H   0  0  0  0  0  0  0  0  0  0  0  0
    1.6388   68.1520   64.2319 H   0  0  0  0  0  0  0  0  0  0  0  0
    2.3289   69.4487   63.1732 H   0  0  0  0  0  0  0  0  0  0  0  0
    3.2060   66.5664   63.4979 H   0  0  0  0  0  0  0  0  0  0  0  0
    2.7763   67.5268   61.9921 H   0  0  0  0  0  0  0  0  0  0  0  0
    5.3570   67.0202   63.1629 H   0  0  0  0  0  0  0  0  0  0  0  0
    4.8785   67.8608   61.6073 H   0  0  0  0  0  0  0  0  0  0  0  0
    6.3438   69.1777   63.2358 H   0  0  0  0  0  0  0  0  0  0  0  0
    4.8442   69.9663   62.6158 H   0  0  0  0  0  0  0  0  0  0  0  0
    2.5154   69.8574   68.9302 H   0  0  0  0  0  0  0  0  0  0  0  0
    4.1979   70.7277   70.5402 H   0  0  0  0  0  0  0  0  0  0  0  0
    6.5276   71.1771   69.7713 H   0  0  0  0  0  0  0  0  0  0  0  0
    7.1534   70.7405   67.4107 H   0  0  0  0  0  0  0  0  0  0  0  0
  2  1  1  0
  3  2  1  0
  5  4  2  0
  6  4  1  0
  6  3  1  0
  8  7  2  0
  9  8  1  0
 10  9  2  0
 11 10  1  0
 12  7  1  0
 12 11  2  0
 13 11  1  0
 14  4  1  0
 14 13  2  0
 15 14  1  0
 16 15  2  0
 17 15  1  0
 17 10  1  0
 19 18  1  0
 19  7  1  0
 20  1  1  0
 21 20  1  0
 22 21  1  0
 23 22  1  0
 24 23  1  0
 25 24  1  0
 26 25  1  0
 27 26  1  0
 28 27  1  0
 29 28  1  0
 30 29  1  0
 31 26  2  0
 31 30  1  0
 32 31  1  0
 33 32  2  0
 34 33  1  0
 34 25  2  0
 35 34  1  0
 36 35  2  0
 37 36  1  0
 38 37  2  0
 38 33  1  0
  1 39  1  0
  1 40  1  0
  2 41  1  0
  2 42  1  0
  3 43  1  0
  3 44  1  0
  6 45  1  0
  8 46  1  0
  9 47  1  0
 12 48  1  0
 13 49  1  0
 18 50  1  0
 18 51  1  0
 18 52  1  0
 20 53  1  0
 20 54  1  0
 21 55  1  0
 21 56  1  0
 22 57  1  0
 22 58  1  0
 23 59  1  0
 23 60  1  0
 24 61  1  0
 27 62  1  0
 27 63  1  0
 28 64  1  0
 28 65  1  0
 29 66  1  0
 29 67  1  0
 30 68  1  0
 30 69  1  0
 35 70  1  0
 36 71  1  0
 37 72  1  0
 38 73  1  0
M  END
>  <score>  (5) 
-11.743

$$$$
=
     RDKit          3D

 73 77  0  0  0  0  0  0  0  0999 V2000
    1.1200   64.5770   70.8100 C   0  0  0  0  0  0  0  0  0  0  0  0
    2.6000   64.5250   70.4200 C   0  0  0  0  0  0  0  0  0  0  0  0
    2.9440   63.3190   69.5450 C   0  0  0  0  0  0  0  0  0  0  0  0
    3.2970   61.3830   71.0540 C   0  0  0  0  0  0  0  0  0  0  0  0
    4.4100   61.7690   71.4050 O   0  0  0  0  0  0  0  0  0  0  0  0
    2.5300   62.0690   70.1470 N   0  0  0  0  0  0  0  0  0  0  0  0
   -0.6300   58.1160   74.5230 C   0  0  0  0  0  0  0  0  0  0  0  0
   -0.1640   56.8480   74.1570 C   0  0  0  0  0  0  0  0  0  0  0  0
    0.8890   56.7090   73.2540 C   0  0  0  0  0  0  0  0  0  0  0  0
    1.4710   57.8540   72.7220 C   0  0  0  0  0  0  0  0  0  0  0  0
    1.0280   59.1240   73.0680 C   0  0  0  0  0  0  0  0  0  0  0  0
   -0.0300   59.2560   73.9750 C   0  0  0  0  0  0  0  0  0  0  0  0
    1.6830   60.2780   72.4740 C   0  0  0  0  0  0  0  0  0  0  0  0
    2.6970   60.1260   71.6050 C   0  0  0  0  0  0  0  0  0  0  0  0
    3.1710   58.7730   71.2310 C   0  0  0  0  0  0  0  0  0  0  0  0
    4.0930   58.6030   70.4380 O   0  0  0  0  0  0  0  0  0  0  0  0
    2.5300   57.6850   71.8150 O   0  0  0  0  0  0  0  0  0  0  0  0
   -1.5240   57.2750   76.5610 C   0  0  0  0  0  0  0  0  0  0  0  0
   -1.6670   58.1040   75.4150 O   0  0  0  0  0  0  0  0  0  0  0  0
    0.3970   65.8190   70.2810 C   0  0  0  0  0  0  0  0  0  0  0  0
    1.3320   66.8060   69.5750 C   0  0  0  0  0  0  0  0  0  0  0  0
    0.6740   67.5150   68.3880 C   0  0  0  0  0  0  0  0  0  0  0  0
    1.5610   67.5650   67.1430 C   0  0  0  0  0  0  0  0  0  0  0  0
    1.6560   68.9590   66.6830 N   0  0  0  0  0  0  0  0  0  0  0  0
    2.9940   69.3030   66.3370 C   0  0  0  0  0  0  0  0  0  0  0  0
    3.4370   69.0570   65.0290 C   0  0  0  0  0  0  0  0  0  0  0  0
    2.5530   68.5760   63.9090 C   0  0  0  0  0  0  0  0  0  0  0  0
    3.2590   67.5180   63.0540 C   0  0  0  0  0  0  0  0  0  0  0  0
    4.7380   67.8100   62.7610 C   0  0  0  0  0  0  0  0  0  0  0  0
    5.2260   69.1520   63.2990 C   0  0  0  0  0  0  0  0  0  0  0  0
    4.7620   69.3550   64.7180 C   0  0  0  0  0  0  0  0  0  0  0  0
    5.6500   69.8450   65.6080 N   0  0  0  0  0  0  0  0  0  0  0  0
    5.2370   70.0560   66.8650 C   0  0  0  0  0  0  0  0  0  0  0  0
    3.9170   69.8000   67.3010 C   0  0  0  0  0  0  0  0  0  0  0  0
    3.5980   70.0510   68.6610 C   0  0  0  0  0  0  0  0  0  0  0  0
    4.5500   70.5430   69.5540 C   0  0  0  0  0  0  0  0  0  0  0  0
    5.8380   70.7940   69.1080 C   0  0  0  0  0  0  0  0  0  0  0  0
    6.1650   70.5470   67.7740 C   0  0  0  0  0  0  0  0  0  0  0  0
    0.6209   63.6839   70.4058 H   0  0  0  0  0  0  0  0  0  0  0  0
    1.0739   64.6165   71.9083 H   0  0  0  0  0  0  0  0  0  0  0  0
    2.8494   65.4424   69.8666 H   0  0  0  0  0  0  0  0  0  0  0  0
    3.1826   64.4353   71.3487 H   0  0  0  0  0  0  0  0  0  0  0  0
    2.4375   63.4296   68.5748 H   0  0  0  0  0  0  0  0  0  0  0  0
    4.0371   63.2899   69.4257 H   0  0  0  0  0  0  0  0  0  0  0  0
    1.6157   61.6760   69.8815 H   0  0  0  0  0  0  0  0  0  0  0  0
   -0.6339   55.9510   74.5867 H   0  0  0  0  0  0  0  0  0  0  0  0
    1.2528   55.7112   72.9676 H   0  0  0  0  0  0  0  0  0  0  0  0
   -0.3902   60.2562   74.2574 H   0  0  0  0  0  0  0  0  0  0  0  0
    1.3438   61.2901   72.7396 H   0  0  0  0  0  0  0  0  0  0  0  0
   -1.6292   57.8850   77.4703 H   0  0  0  0  0  0  0  0  0  0  0  0
   -2.3011   56.4966   76.5497 H   0  0  0  0  0  0  0  0  0  0  0  0
   -0.5310   56.8019   76.5497 H   0  0  0  0  0  0  0  0  0  0  0  0
   -0.3750   65.4966   69.5668 H   0  0  0  0  0  0  0  0  0  0  0  0
   -0.0346   66.3404   71.1481 H   0  0  0  0  0  0  0  0  0  0  0  0
    1.6522   67.5662   70.3028 H   0  0  0  0  0  0  0  0  0  0  0  0
    2.1811   66.2280   69.1813 H   0  0  0  0  0  0  0  0  0  0  0  0
   -0.2539   66.9816   68.1339 H   0  0  0  0  0  0  0  0  0  0  0  0
    0.4853   68.5545   68.6944 H   0  0  0  0  0  0  0  0  0  0  0  0
    2.5646   67.1878   67.3890 H   0  0  0  0  0  0  0  0  0  0  0  0
    1.1265   66.9389   66.3497 H   0  0  0  0  0  0  0  0  0  0  0  0
    0.8560   69.6046   66.6192 H   0  0  0  0  0  0  0  0  0  0  0  0
    1.6391   68.1385   64.3372 H   0  0  0  0  0  0  0  0  0  0  0  0
    2.3106   69.4351   63.2661 H   0  0  0  0  0  0  0  0  0  0  0  0
    3.1982   66.5549   63.5819 H   0  0  0  0  0  0  0  0  0  0  0  0
    2.7455   67.5124   62.0812 H   0  0  0  0  0  0  0  0  0  0  0  0
    5.3444   67.0137   63.2172 H   0  0  0  0  0  0  0  0  0  0  0  0
    4.8430   67.8495   61.6667 H   0  0  0  0  0  0  0  0  0  0  0  0
    6.3254   69.1743   63.2715 H   0  0  0  0  0  0  0  0  0  0  0  0
    4.8133   69.9564   62.6725 H   0  0  0  0  0  0  0  0  0  0  0  0
    2.5769   69.8531   69.0190 H   0  0  0  0  0  0  0  0  0  0  0  0
    4.2806   70.7303   70.6039 H   0  0  0  0  0  0  0  0  0  0  0  0
    6.5974   71.1853   69.8009 H   0  0  0  0  0  0  0  0  0  0  0  0
    7.1909   70.7477   67.4315 H   0  0  0  0  0  0  0  0  0  0  0  0
  2  1  1  0
  3  2  1  0
  5  4  2  0
  6  4  1  0
  6  3  1  0
  8  7  2  0
  9  8  1  0
 10  9  2  0
 11 10  1  0
 12  7  1  0
 12 11  2  0
 13 11  1  0
 14  4  1  0
 14 13  2  0
 15 14  1  0
 16 15  2  0
 17 15  1  0
 17 10  1  0
 19 18  1  0
 19  7  1  0
 20  1  1  0
 21 20  1  0
 22 21  1  0
 23 22  1  0
 24 23  1  0
 25 24  1  0
 26 25  1  0
 27 26  1  0
 28 27  1  0
 29 28  1  0
 30 29  1  0
 31 26  2  0
 31 30  1  0
 32 31  1  0
 33 32  2  0
 34 33  1  0
 34 25  2  0
 35 34  1  0
 36 35  2  0
 37 36  1  0
 38 37  2  0
 38 33  1  0
  1 39  1  0
  1 40  1  0
  2 41  1  0
  2 42  1  0
  3 43  1  0
  3 44  1  0
  6 45  1  0
  8 46  1  0
  9 47  1  0
 12 48  1  0
 13 49  1  0
 18 50  1  0
 18 51  1  0
 18 52  1  0
 20 53  1  0
 20 54  1  0
 21 55  1  0
 21 56  1  0
 22 57  1  0
 22 58  1  0
 23 59  1  0
 23 60  1  0
 24 61  1  0
 27 62  1  0
 27 63  1  0
 28 64  1  0
 28 65  1  0
 29 66  1  0
 29 67  1  0
 30 68  1  0
 30 69  1  0
 35 70  1  0
 36 71  1  0
 37 72  1  0
 38 73  1  0
M  END
>  <score>  (6) 
-11.714

$$$$
=
     RDKit          3D

 73 77  0  0  0  0  0  0  0  0999 V2000
   -0.7420   66.6280   67.8960 C   0  0  0  0  0  0  0  0  0  0  0  0
   -1.9790   67.4510   67.5260 C   0  0  0  0  0  0  0  0  0  0  0  0
   -1.6700   68.5850   66.5480 C   0  0  0  0  0  0  0  0  0  0  0  0
    0.5650   68.4460   65.4790 C   0  0  0  0  0  0  0  0  0  0  0  0
    0.1600   67.7360   64.5610 O   0  0  0  0  0  0  0  0  0  0  0  0
   -0.2550   68.8870   66.4870 N   0  0  0  0  0  0  0  0  0  0  0  0
    5.6270   70.5390   68.3280 C   0  0  0  0  0  0  0  0  0  0  0  0
    6.4610   70.5520   67.2030 C   0  0  0  0  0  0  0  0  0  0  0  0
    5.9830   70.1490   65.9580 C   0  0  0  0  0  0  0  0  0  0  0  0
    4.6600   69.7350   65.8480 C   0  0  0  0  0  0  0  0  0  0  0  0
    3.8120   69.7130   66.9490 C   0  0  0  0  0  0  0  0  0  0  0  0
    4.2990   70.1190   68.1970 C   0  0  0  0  0  0  0  0  0  0  0  0
    2.4400   69.2700   66.7630 C   0  0  0  0  0  0  0  0  0  0  0  0
    1.9950   68.8850   65.5540 C   0  0  0  0  0  0  0  0  0  0  0  0
    2.8970   68.9050   64.3800 C   0  0  0  0  0  0  0  0  0  0  0  0
    2.5200   68.5560   63.2640 O   0  0  0  0  0  0  0  0  0  0  0  0
    4.2040   69.3360   64.5820 O   0  0  0  0  0  0  0  0  0  0  0  0
    7.6420   70.8460   69.5550 C   0  0  0  0  0  0  0  0  0  0  0  0
    6.2270   70.9590   69.4830 O   0  0  0  0  0  0  0  0  0  0  0  0
   -0.3790   66.7160   69.3820 C   0  0  0  0  0  0  0  0  0  0  0  0
    1.1270   66.8400   69.6290 C   0  0  0  0  0  0  0  0  0  0  0  0
    1.7420   65.5820   70.2490 C   0  0  0  0  0  0  0  0  0  0  0  0
    0.7050   64.6310   70.8470 C   0  0  0  0  0  0  0  0  0  0  0  0
    1.0020   63.2620   70.4000 N   0  0  0  0  0  0  0  0  0  0  0  0
    1.4950   62.4600   71.4690 C   0  0  0  0  0  0  0  0  0  0  0  0
    2.8770   62.2510   71.5740 C   0  0  0  0  0  0  0  0  0  0  0  0
    3.9080   62.9310   70.7120 C   0  0  0  0  0  0  0  0  0  0  0  0
    5.0150   61.9580   70.2920 C   0  0  0  0  0  0  0  0  0  0  0  0
    5.4850   61.0030   71.3990 C   0  0  0  0  0  0  0  0  0  0  0  0
    4.8280   61.2480   72.7540 C   0  0  0  0  0  0  0  0  0  0  0  0
    3.3410   61.4260   72.5970 C   0  0  0  0  0  0  0  0  0  0  0  0
    2.5340   60.7980   73.4780 N   0  0  0  0  0  0  0  0  0  0  0  0
    1.2110   60.9740   73.3640 C   0  0  0  0  0  0  0  0  0  0  0  0
    0.6200   61.7920   72.3740 C   0  0  0  0  0  0  0  0  0  0  0  0
   -0.7950   61.8940   72.3430 C   0  0  0  0  0  0  0  0  0  0  0  0
   -1.5940   61.2150   73.2630 C   0  0  0  0  0  0  0  0  0  0  0  0
   -0.9980   60.4220   74.2300 C   0  0  0  0  0  0  0  0  0  0  0  0
    0.3920   60.3110   74.2690 C   0  0  0  0  0  0  0  0  0  0  0  0
   -0.9356   65.5745   67.6455 H   0  0  0  0  0  0  0  0  0  0  0  0
    0.1055   67.0396   67.3282 H   0  0  0  0  0  0  0  0  0  0  0  0
   -2.7202   66.7820   67.0645 H   0  0  0  0  0  0  0  0  0  0  0  0
   -2.3594   67.9083   68.4513 H   0  0  0  0  0  0  0  0  0  0  0  0
   -2.0125   68.2905   65.5450 H   0  0  0  0  0  0  0  0  0  0  0  0
   -2.1918   69.4864   66.9017 H   0  0  0  0  0  0  0  0  0  0  0  0
    0.1561   69.4610   67.2370 H   0  0  0  0  0  0  0  0  0  0  0  0
    7.5049   70.8840   67.3035 H   0  0  0  0  0  0  0  0  0  0  0  0
    6.6411   70.1581   65.0767 H   0  0  0  0  0  0  0  0  0  0  0  0
    3.6370   70.1078   69.0754 H   0  0  0  0  0  0  0  0  0  0  0  0
    1.7558   69.2494   67.6240 H   0  0  0  0  0  0  0  0  0  0  0  0
    7.9547   70.8210   70.6093 H   0  0  0  0  0  0  0  0  0  0  0  0
    7.9617   69.9195   69.0557 H   0  0  0  0  0  0  0  0  0  0  0  0
    8.1047   71.7101   69.0557 H   0  0  0  0  0  0  0  0  0  0  0  0
   -0.8775   67.5973   69.8120 H   0  0  0  0  0  0  0  0  0  0  0  0
   -0.7119   65.7807   69.8556 H   0  0  0  0  0  0  0  0  0  0  0  0
    1.6242   67.0347   68.6673 H   0  0  0  0  0  0  0  0  0  0  0  0
    1.2744   67.6626   70.3442 H   0  0  0  0  0  0  0  0  0  0  0  0
    2.2985   65.0442   69.4672 H   0  0  0  0  0  0  0  0  0  0  0  0
    2.3939   65.9107   71.0718 H   0  0  0  0  0  0  0  0  0  0  0  0
    0.7496   64.6789   71.9451 H   0  0  0  0  0  0  0  0  0  0  0  0
   -0.3028   64.9215   70.5153 H   0  0  0  0  0  0  0  0  0  0  0  0
    0.8702   62.9254   69.4355 H   0  0  0  0  0  0  0  0  0  0  0  0
    3.4168   63.3253   69.8102 H   0  0  0  0  0  0  0  0  0  0  0  0
    4.3647   63.7445   71.2948 H   0  0  0  0  0  0  0  0  0  0  0  0
    4.6390   61.3525   69.4541 H   0  0  0  0  0  0  0  0  0  0  0  0
    5.8854   62.5750   70.0242 H   0  0  0  0  0  0  0  0  0  0  0  0
    5.2578   59.9732   71.0862 H   0  0  0  0  0  0  0  0  0  0  0  0
    6.5626   61.1786   71.5328 H   0  0  0  0  0  0  0  0  0  0  0  0
    5.0218   60.3871   73.4108 H   0  0  0  0  0  0  0  0  0  0  0  0
    5.2506   62.1638   73.1929 H   0  0  0  0  0  0  0  0  0  0  0  0
   -1.2723   62.5223   71.5766 H   0  0  0  0  0  0  0  0  0  0  0  0
   -2.6892   61.3085   73.2210 H   0  0  0  0  0  0  0  0  0  0  0  0
   -1.6170   59.8832   74.9625 H   0  0  0  0  0  0  0  0  0  0  0  0
    0.8542   59.6783   75.0410 H   0  0  0  0  0  0  0  0  0  0  0  0
  2  1  1  0
  3  2  1  0
  5  4  2  0
  6  4  1  0
  6  3  1  0
  8  7  2  0
  9  8  1  0
 10  9  2  0
 11 10  1  0
 12  7  1  0
 12 11  2  0
 13 11  1  0
 14  4  1  0
 14 13  2  0
 15 14  1  0
 16 15  2  0
 17 15  1  0
 17 10  1  0
 19 18  1  0
 19  7  1  0
 20  1  1  0
 21 20  1  0
 22 21  1  0
 23 22  1  0
 24 23  1  0
 25 24  1  0
 26 25  1  0
 27 26  1  0
 28 27  1  0
 29 28  1  0
 30 29  1  0
 31 26  2  0
 31 30  1  0
 32 31  1  0
 33 32  2  0
 34 33  1  0
 34 25  2  0
 35 34  1  0
 36 35  2  0
 37 36  1  0
 38 37  2  0
 38 33  1  0
  1 39  1  0
  1 40  1  0
  2 41  1  0
  2 42  1  0
  3 43  1  0
  3 44  1  0
  6 45  1  0
  8 46  1  0
  9 47  1  0
 12 48  1  0
 13 49  1  0
 18 50  1  0
 18 51  1  0
 18 52  1  0
 20 53  1  0
 20 54  1  0
 21 55  1  0
 21 56  1  0
 22 57  1  0
 22 58  1  0
 23 59  1  0
 23 60  1  0
 24 61  1  0
 27 62  1  0
 27 63  1  0
 28 64  1  0
 28 65  1  0
 29 66  1  0
 29 67  1  0
 30 68  1  0
 30 69  1  0
 35 70  1  0
 36 71  1  0
 37 72  1  0
 38 73  1  0
M  END
>  <score>  (7) 
-11.589

$$$$
=
     RDKit          3D

 73 77  0  0  0  0  0  0  0  0999 V2000
    0.2090   66.1490   69.7660 C   0  0  0  0  0  0  0  0  0  0  0  0
   -1.1160   66.1300   69.0000 C   0  0  0  0  0  0  0  0  0  0  0  0
   -1.1540   67.1380   67.8510 C   0  0  0  0  0  0  0  0  0  0  0  0
    0.5510   68.8840   67.4090 C   0  0  0  0  0  0  0  0  0  0  0  0
   -0.2160   69.8050   67.6820 O   0  0  0  0  0  0  0  0  0  0  0  0
    0.1700   67.5670   67.4520 N   0  0  0  0  0  0  0  0  0  0  0  0
    6.2890   71.0080   68.2410 C   0  0  0  0  0  0  0  0  0  0  0  0
    6.7970   70.6170   66.9960 C   0  0  0  0  0  0  0  0  0  0  0  0
    5.9860   69.9620   66.0710 C   0  0  0  0  0  0  0  0  0  0  0  0
    4.6610   69.7030   66.4040 C   0  0  0  0  0  0  0  0  0  0  0  0
    4.1330   70.0800   67.6330 C   0  0  0  0  0  0  0  0  0  0  0  0
    4.9530   70.7370   68.5580 C   0  0  0  0  0  0  0  0  0  0  0  0
    2.7390   69.7780   67.9150 C   0  0  0  0  0  0  0  0  0  0  0  0
    1.9720   69.1450   67.0110 C   0  0  0  0  0  0  0  0  0  0  0  0
    2.5320   68.7400   65.7020 C   0  0  0  0  0  0  0  0  0  0  0  0
    1.8560   68.1580   64.8570 O   0  0  0  0  0  0  0  0  0  0  0  0
    3.8670   69.0420   65.4540 O   0  0  0  0  0  0  0  0  0  0  0  0
    7.9040   70.8350   69.9800 C   0  0  0  0  0  0  0  0  0  0  0  0
    7.1940   71.6400   69.0490 O   0  0  0  0  0  0  0  0  0  0  0  0
    0.0470   65.8730   71.2640 C   0  0  0  0  0  0  0  0  0  0  0  0
    0.3290   64.4170   71.6430 C   0  0  0  0  0  0  0  0  0  0  0  0
    0.3260   64.1760   73.1550 C   0  0  0  0  0  0  0  0  0  0  0  0
    0.7850   62.7700   73.5470 C   0  0  0  0  0  0  0  0  0  0  0  0
    0.3210   61.8180   72.5280 N   0  0  0  0  0  0  0  0  0  0  0  0
    1.2460   60.7490   72.3530 C   0  0  0  0  0  0  0  0  0  0  0  0
    2.3730   60.9580   71.5450 C   0  0  0  0  0  0  0  0  0  0  0  0
    2.7570   62.2860   70.9490 C   0  0  0  0  0  0  0  0  0  0  0  0
    3.2520   62.1300   69.5070 C   0  0  0  0  0  0  0  0  0  0  0  0
    4.1620   60.9170   69.2680 C   0  0  0  0  0  0  0  0  0  0  0  0
    4.4900   60.1240   70.5300 C   0  0  0  0  0  0  0  0  0  0  0  0
    3.2440   59.8890   71.3450 C   0  0  0  0  0  0  0  0  0  0  0  0
    3.0550   58.6590   71.8660 N   0  0  0  0  0  0  0  0  0  0  0  0
    1.9650   58.4480   72.6170 C   0  0  0  0  0  0  0  0  0  0  0  0
    1.0120   59.4530   72.8970 C   0  0  0  0  0  0  0  0  0  0  0  0
   -0.1100   59.1110   73.6960 C   0  0  0  0  0  0  0  0  0  0  0  0
   -0.2780   57.8220   74.2020 C   0  0  0  0  0  0  0  0  0  0  0  0
    0.6700   56.8500   73.9220 C   0  0  0  0  0  0  0  0  0  0  0  0
    1.7750   57.1740   73.1350 C   0  0  0  0  0  0  0  0  0  0  0  0
    0.8702   65.3806   69.3389 H   0  0  0  0  0  0  0  0  0  0  0  0
    0.6293   67.1605   69.6647 H   0  0  0  0  0  0  0  0  0  0  0  0
   -1.2684   65.1217   68.5875 H   0  0  0  0  0  0  0  0  0  0  0  0
   -1.9106   66.4071   69.7084 H   0  0  0  0  0  0  0  0  0  0  0  0
   -1.6498   66.6711   66.9872 H   0  0  0  0  0  0  0  0  0  0  0  0
   -1.7041   68.0246   68.1994 H   0  0  0  0  0  0  0  0  0  0  0  0
    0.8591   66.8485   67.1877 H   0  0  0  0  0  0  0  0  0  0  0  0
    7.8469   70.8290   66.7455 H   0  0  0  0  0  0  0  0  0  0  0  0
    6.3873   69.6551   65.0939 H   0  0  0  0  0  0  0  0  0  0  0  0
    4.5472   71.0404   69.5343 H   0  0  0  0  0  0  0  0  0  0  0  0
    2.3058   70.0719   68.8824 H   0  0  0  0  0  0  0  0  0  0  0  0
    7.6377   71.1369   71.0037 H   0  0  0  0  0  0  0  0  0  0  0  0
    7.6384   69.7784   69.8285 H   0  0  0  0  0  0  0  0  0  0  0  0
    8.9856   70.9665   69.8285 H   0  0  0  0  0  0  0  0  0  0  0  0
    0.7451   66.5194   71.8161 H   0  0  0  0  0  0  0  0  0  0  0  0
   -1.0016   66.0809   71.5231 H   0  0  0  0  0  0  0  0  0  0  0  0
   -0.4434   63.7809   71.1860 H   0  0  0  0  0  0  0  0  0  0  0  0
    1.3364   64.1726   71.2750 H   0  0  0  0  0  0  0  0  0  0  0  0
    0.9999   64.9068   73.6259 H   0  0  0  0  0  0  0  0  0  0  0  0
   -0.7128   64.2863   73.4994 H   0  0  0  0  0  0  0  0  0  0  0  0
    1.8831   62.7426   73.6055 H   0  0  0  0  0  0  0  0  0  0  0  0
    0.3664   62.5005   74.5279 H   0  0  0  0  0  0  0  0  0  0  0  0
   -0.5620   61.9120   72.0061 H   0  0  0  0  0  0  0  0  0  0  0  0
    1.8791   62.9487   70.9562 H   0  0  0  0  0  0  0  0  0  0  0  0
    3.5731   62.7124   71.5508 H   0  0  0  0  0  0  0  0  0  0  0  0
    2.3736   62.0335   68.8519 H   0  0  0  0  0  0  0  0  0  0  0  0
    3.8591   63.0211   69.2892 H   0  0  0  0  0  0  0  0  0  0  0  0
    3.6600   60.2435   68.5579 H   0  0  0  0  0  0  0  0  0  0  0  0
    5.1155   61.3076   68.8828 H   0  0  0  0  0  0  0  0  0  0  0  0
    4.9246   59.1544   70.2454 H   0  0  0  0  0  0  0  0  0  0  0  0
    5.2073   60.6985   71.1346 H   0  0  0  0  0  0  0  0  0  0  0  0
   -0.8640   59.8796   73.9213 H   0  0  0  0  0  0  0  0  0  0  0  0
   -1.1559   57.5786   74.8184 H   0  0  0  0  0  0  0  0  0  0  0  0
    0.5516   55.8305   74.3177 H   0  0  0  0  0  0  0  0  0  0  0  0
    2.5203   56.3947   72.9176 H   0  0  0  0  0  0  0  0  0  0  0  0
  2  1  1  0
  3  2  1  0
  5  4  2  0
  6  4  1  0
  6  3  1  0
  8  7  2  0
  9  8  1  0
 10  9  2  0
 11 10  1  0
 12  7  1  0
 12 11  2  0
 13 11  1  0
 14  4  1  0
 14 13  2  0
 15 14  1  0
 16 15  2  0
 17 15  1  0
 17 10  1  0
 19 18  1  0
 19  7  1  0
 20  1  1  0
 21 20  1  0
 22 21  1  0
 23 22  1  0
 24 23  1  0
 25 24  1  0
 26 25  1  0
 27 26  1  0
 28 27  1  0
 29 28  1  0
 30 29  1  0
 31 26  2  0
 31 30  1  0
 32 31  1  0
 33 32  2  0
 34 33  1  0
 34 25  2  0
 35 34  1  0
 36 35  2  0
 37 36  1  0
 38 37  2  0
 38 33  1  0
  1 39  1  0
  1 40  1  0
  2 41  1  0
  2 42  1  0
  3 43  1  0
  3 44  1  0
  6 45  1  0
  8 46  1  0
  9 47  1  0
 12 48  1  0
 13 49  1  0
 18 50  1  0
 18 51  1  0
 18 52  1  0
 20 53  1  0
 20 54  1  0
 21 55  1  0
 21 56  1  0
 22 57  1  0
 22 58  1  0
 23 59  1  0
 23 60  1  0
 24 61  1  0
 27 62  1  0
 27 63  1  0
 28 64  1  0
 28 65  1  0
 29 66  1  0
 29 67  1  0
 30 68  1  0
 30 69  1  0
 35 70  1  0
 36 71  1  0
 37 72  1  0
 38 73  1  0
M  END
>  <score>  (8) 
-11.128

$$$$
=
     RDKit          3D

 73 77  0  0  0  0  0  0  0  0999 V2000
    0.1820   66.3550   69.6940 C   0  0  0  0  0  0  0  0  0  0  0  0
   -1.1110   66.2220   68.8840 C   0  0  0  0  0  0  0  0  0  0  0  0
   -1.1280   67.1130   67.6410 C   0  0  0  0  0  0  0  0  0  0  0  0
    0.5630   68.8960   67.3070 C   0  0  0  0  0  0  0  0  0  0  0  0
   -0.2170   69.7930   67.6220 O   0  0  0  0  0  0  0  0  0  0  0  0
    0.1950   67.5750   67.2780 N   0  0  0  0  0  0  0  0  0  0  0  0
    6.3140   70.8850   68.3540 C   0  0  0  0  0  0  0  0  0  0  0  0
    6.8170   70.6310   67.0720 C   0  0  0  0  0  0  0  0  0  0  0  0
    6.0000   70.0870   66.0820 C   0  0  0  0  0  0  0  0  0  0  0  0
    4.6750   69.7990   66.3880 C   0  0  0  0  0  0  0  0  0  0  0  0
    4.1520   70.0410   67.6530 C   0  0  0  0  0  0  0  0  0  0  0  0
    4.9770   70.5880   68.6420 C   0  0  0  0  0  0  0  0  0  0  0  0
    2.7570   69.7170   67.9040 C   0  0  0  0  0  0  0  0  0  0  0  0
    1.9840   69.1920   66.9370 C   0  0  0  0  0  0  0  0  0  0  0  0
    2.5390   68.9310   65.5890 C   0  0  0  0  0  0  0  0  0  0  0  0
    1.8580   68.4490   64.6880 O   0  0  0  0  0  0  0  0  0  0  0  0
    3.8750   69.2520   65.3730 O   0  0  0  0  0  0  0  0  0  0  0  0
    7.5780   70.6330   70.3540 C   0  0  0  0  0  0  0  0  0  0  0  0
    7.2240   71.4190   69.2240 O   0  0  0  0  0  0  0  0  0  0  0  0
    0.0120   65.9790   71.1690 C   0  0  0  0  0  0  0  0  0  0  0  0
    0.4350   64.5400   71.4770 C   0  0  0  0  0  0  0  0  0  0  0  0
    0.3320   64.1860   72.9640 C   0  0  0  0  0  0  0  0  0  0  0  0
    0.9590   62.8350   73.3110 C   0  0  0  0  0  0  0  0  0  0  0  0
    0.2720   61.7820   72.5500 N   0  0  0  0  0  0  0  0  0  0  0  0
    1.1420   60.6910   72.2680 C   0  0  0  0  0  0  0  0  0  0  0  0
    1.0210   59.5180   73.0260 C   0  0  0  0  0  0  0  0  0  0  0  0
   -0.0640   59.2690   74.0390 C   0  0  0  0  0  0  0  0  0  0  0  0
    0.4880   58.5820   75.2930 C   0  0  0  0  0  0  0  0  0  0  0  0
    1.5160   57.4760   75.0200 C   0  0  0  0  0  0  0  0  0  0  0  0
    1.7460   57.1900   73.5380 C   0  0  0  0  0  0  0  0  0  0  0  0
    1.9110   58.4760   72.7710 C   0  0  0  0  0  0  0  0  0  0  0  0
    2.8970   58.5390   71.8520 N   0  0  0  0  0  0  0  0  0  0  0  0
    3.0320   59.6690   71.1430 C   0  0  0  0  0  0  0  0  0  0  0  0
    2.1880   60.7910   71.3050 C   0  0  0  0  0  0  0  0  0  0  0  0
    2.4350   61.9380   70.5060 C   0  0  0  0  0  0  0  0  0  0  0  0
    3.4760   61.9690   69.5780 C   0  0  0  0  0  0  0  0  0  0  0  0
    4.2900   60.8580   69.4280 C   0  0  0  0  0  0  0  0  0  0  0  0
    4.0600   59.7250   70.2110 C   0  0  0  0  0  0  0  0  0  0  0  0
    0.9418   65.6948   69.2504 H   0  0  0  0  0  0  0  0  0  0  0  0
    0.4820   67.4127   69.6590 H   0  0  0  0  0  0  0  0  0  0  0  0
   -1.2204   65.1745   68.5667 H   0  0  0  0  0  0  0  0  0  0  0  0
   -1.9408   66.5420   69.5313 H   0  0  0  0  0  0  0  0  0  0  0  0
   -1.5454   66.5394   66.8003 H   0  0  0  0  0  0  0  0  0  0  0  0
   -1.7422   67.9966   67.8688 H   0  0  0  0  0  0  0  0  0  0  0  0
    0.8939   66.8780   66.9837 H   0  0  0  0  0  0  0  0  0  0  0  0
    7.8677   70.8631   66.8437 H   0  0  0  0  0  0  0  0  0  0  0  0
    6.3972   69.8890   65.0755 H   0  0  0  0  0  0  0  0  0  0  0  0
    4.5744   70.7847   69.6466 H   0  0  0  0  0  0  0  0  0  0  0  0
    2.3277   69.9040   68.8994 H   0  0  0  0  0  0  0  0  0  0  0  0
    7.3307   71.1820   71.2745 H   0  0  0  0  0  0  0  0  0  0  0  0
    7.0197   69.6855   70.3310 H   0  0  0  0  0  0  0  0  0  0  0  0
    8.6576   70.4231   70.3310 H   0  0  0  0  0  0  0  0  0  0  0  0
    0.6247   66.6612   71.7766 H   0  0  0  0  0  0  0  0  0  0  0  0
   -1.0587   66.0630   71.4066 H   0  0  0  0  0  0  0  0  0  0  0  0
   -0.2128   63.8560   70.9091 H   0  0  0  0  0  0  0  0  0  0  0  0
    1.4923   64.4414   71.1899 H   0  0  0  0  0  0  0  0  0  0  0  0
    0.8438   64.9675   73.5448 H   0  0  0  0  0  0  0  0  0  0  0  0
   -0.7383   64.1200   73.2089 H   0  0  0  0  0  0  0  0  0  0  0  0
    2.0268   62.8447   73.0468 H   0  0  0  0  0  0  0  0  0  0  0  0
    0.8569   62.6426   74.3892 H   0  0  0  0  0  0  0  0  0  0  0  0
   -0.7146   61.8276   72.2576 H   0  0  0  0  0  0  0  0  0  0  0  0
   -0.5128   60.2313   74.3264 H   0  0  0  0  0  0  0  0  0  0  0  0
   -0.8162   58.6073   73.5847 H   0  0  0  0  0  0  0  0  0  0  0  0
    0.9676   59.3480   75.9200 H   0  0  0  0  0  0  0  0  0  0  0  0
   -0.3685   58.0952   75.7823 H   0  0  0  0  0  0  0  0  0  0  0  0
    2.4749   57.7780   75.4663 H   0  0  0  0  0  0  0  0  0  0  0  0
    1.1133   56.5528   75.4622 H   0  0  0  0  0  0  0  0  0  0  0  0
    2.6551   56.5814   73.4238 H   0  0  0  0  0  0  0  0  0  0  0  0
    0.8745   56.6488   73.1411 H   0  0  0  0  0  0  0  0  0  0  0  0
    1.7910   62.8223   70.6212 H   0  0  0  0  0  0  0  0  0  0  0  0
    3.6493   62.8690   68.9697 H   0  0  0  0  0  0  0  0  0  0  0  0
    5.1119   60.8684   68.6970 H   0  0  0  0  0  0  0  0  0  0  0  0
    4.7137   58.8492   70.0857 H   0  0  0  0  0  0  0  0  0  0  0  0
  2  1  1  0
  3  2  1  0
  5  4  2  0
  6  4  1  0
  6  3  1  0
  8  7  2  0
  9  8  1  0
 10  9  2  0
 11 10  1  0
 12  7  1  0
 12 11  2  0
 13 11  1  0
 14  4  1  0
 14 13  2  0
 15 14  1  0
 16 15  2  0
 17 15  1  0
 17 10  1  0
 19 18  1  0
 19  7  1  0
 20  1  1  0
 21 20  1  0
 22 21  1  0
 23 22  1  0
 24 23  1  0
 25 24  1  0
 26 25  1  0
 27 26  1  0
 28 27  1  0
 29 28  1  0
 30 29  1  0
 31 26  2  0
 31 30  1  0
 32 31  1  0
 33 32  2  0
 34 33  1  0
 34 25  2  0
 35 34  1  0
 36 35  2  0
 37 36  1  0
 38 37  2  0
 38 33  1  0
  1 39  1  0
  1 40  1  0
  2 41  1  0
  2 42  1  0
  3 43  1  0
  3 44  1  0
  6 45  1  0
  8 46  1  0
  9 47  1  0
 12 48  1  0
 13 49  1  0
 18 50  1  0
 18 51  1  0
 18 52  1  0
 20 53  1  0
 20 54  1  0
 21 55  1  0
 21 56  1  0
 22 57  1  0
 22 58  1  0
 23 59  1  0
 23 60  1  0
 24 61  1  0
 27 62  1  0
 27 63  1  0
 28 64  1  0
 28 65  1  0
 29 66  1  0
 29 67  1  0
 30 68  1  0
 30 69  1  0
 35 70  1  0
 36 71  1  0
 37 72  1  0
 38 73  1  0
M  END
>  <score>  (9) 
-10.933

$$$$
