=
     RDKit          3D

 31 33  0  0  0  0  0  0  0  0999 V2000
    3.6600   68.8620   61.1270 C   0  0  0  0  0  0  0  0  0  0  0  0
    4.8890   69.1770   61.6970 C   0  0  0  0  0  0  0  0  0  0  0  0
    4.9960   69.2600   63.0900 C   0  0  0  0  0  0  0  0  0  0  0  0
    3.8790   69.0310   63.9070 C   0  0  0  0  0  0  0  0  0  0  0  0
    2.6550   68.7160   63.3090 C   0  0  0  0  0  0  0  0  0  0  0  0
    2.5440   68.6320   61.9200 C   0  0  0  0  0  0  0  0  0  0  0  0
    1.5050   68.4750   64.0200 O   0  0  0  0  0  0  0  0  0  0  0  0
    1.5560   68.5350   65.4000 C   0  0  0  0  0  0  0  0  0  0  0  0
    2.6600   68.8350   66.0950 C   0  0  0  0  0  0  0  0  0  0  0  0
    3.9230   69.1050   65.3850 C   0  0  0  0  0  0  0  0  0  0  0  0
    4.9230   69.3690   66.0400 O   0  0  0  0  0  0  0  0  0  0  0  0
    0.2670   68.2640   66.0660 C   0  0  0  0  0  0  0  0  0  0  0  0
    0.1810   67.4000   67.1710 C   0  0  0  0  0  0  0  0  0  0  0  0
   -1.0490   67.1420   67.7860 C   0  0  0  0  0  0  0  0  0  0  0  0
   -2.2040   67.7440   67.2950 C   0  0  0  0  0  0  0  0  0  0  0  0
   -2.1350   68.5950   66.1940 C   0  0  0  0  0  0  0  0  0  0  0  0
   -0.9100   68.8540   65.5780 C   0  0  0  0  0  0  0  0  0  0  0  0
   -3.2800   69.1740   65.7240 O   0  0  0  0  0  0  0  0  0  0  0  0
   -3.4130   67.5030   67.8840 O   0  0  0  0  0  0  0  0  0  0  0  0
    3.5030   68.7680   59.7760 O   0  0  0  0  0  0  0  0  0  0  0  0
    6.2090   69.5710   63.6370 O   0  0  0  0  0  0  0  0  0  0  0  0
    5.7672   69.3589   61.0600 H   0  0  0  0  0  0  0  0  0  0  0  0
    1.5776   68.3849   61.4564 H   0  0  0  0  0  0  0  0  0  0  0  0
    2.6247   68.8799   67.1935 H   0  0  0  0  0  0  0  0  0  0  0  0
    1.0924   66.9204   67.5574 H   0  0  0  0  0  0  0  0  0  0  0  0
   -1.1030   66.4670   68.6529 H   0  0  0  0  0  0  0  0  0  0  0  0
   -0.8662   69.5234   64.7062 H   0  0  0  0  0  0  0  0  0  0  0  0
   -3.2432   69.7804   64.9423 H   0  0  0  0  0  0  0  0  0  0  0  0
   -4.2308   67.9343   67.5300 H   0  0  0  0  0  0  0  0  0  0  0  0
    2.6175   68.5423   59.3951 H   0  0  0  0  0  0  0  0  0  0  0  0
    6.3069   69.6349   64.6201 H   0  0  0  0  0  0  0  0  0  0  0  0
  2  1  2  0
  3  2  1  0
  4  3  2  0
  5  4  1  0
  6  5  2  0
  6  1  1  0
  7  5  1  0
  8  7  1  0
  9  8  2  0
 10  4  1  0
 10  9  1  0
 11 10  2  0
 12  8  1  0
 13 12  2  0
 14 13  1  0
 15 14  2  0
 16 15  1  0
 17 16  2  0
 17 12  1  0
 18 16  1  0
 19 15  1  0
 20  1  1  0
 21  3  1  0
  2 22  1  0
  6 23  1  0
  9 24  1  0
 13 25  1  0
 14 26  1  0
 17 27  1  0
 18 28  1  0
 19 29  1  0
 20 30  1  0
 21 31  1  0
M  END
>  <score>  (1) 
-10.109

$$$$
=
     RDKit          3D

 31 33  0  0  0  0  0  0  0  0999 V2000
    5.8470   70.6450   68.0310 C   0  0  0  0  0  0  0  0  0  0  0  0
    6.4610   70.6210   66.7830 C   0  0  0  0  0  0  0  0  0  0  0  0
    5.7480   70.1450   65.6780 C   0  0  0  0  0  0  0  0  0  0  0  0
    4.4270   69.6940   65.8210 C   0  0  0  0  0  0  0  0  0  0  0  0
    3.8330   69.7280   67.0860 C   0  0  0  0  0  0  0  0  0  0  0  0
    4.5410   70.2020   68.1910 C   0  0  0  0  0  0  0  0  0  0  0  0
    2.5470   69.3090   67.3300 O   0  0  0  0  0  0  0  0  0  0  0  0
    1.7940   68.8380   66.2720 C   0  0  0  0  0  0  0  0  0  0  0  0
    2.2450   68.7440   65.0140 C   0  0  0  0  0  0  0  0  0  0  0  0
    3.6170   69.1770   64.6950 C   0  0  0  0  0  0  0  0  0  0  0  0
    4.0080   69.0910   63.5380 O   0  0  0  0  0  0  0  0  0  0  0  0
    0.4300   68.4110   66.6420 C   0  0  0  0  0  0  0  0  0  0  0  0
    0.2120   67.4080   67.6020 C   0  0  0  0  0  0  0  0  0  0  0  0
   -1.0850   67.0040   67.9360 C   0  0  0  0  0  0  0  0  0  0  0  0
   -2.1740   67.5990   67.3060 C   0  0  0  0  0  0  0  0  0  0  0  0
   -1.9730   68.5880   66.3460 C   0  0  0  0  0  0  0  0  0  0  0  0
   -0.6810   68.9930   66.0110 C   0  0  0  0  0  0  0  0  0  0  0  0
   -3.0560   69.1580   65.7360 O   0  0  0  0  0  0  0  0  0  0  0  0
   -3.4480   67.2170   67.6210 O   0  0  0  0  0  0  0  0  0  0  0  0
    6.4990   71.0990   69.1380 O   0  0  0  0  0  0  0  0  0  0  0  0
    6.3630   70.1280   64.4580 O   0  0  0  0  0  0  0  0  0  0  0  0
    7.4967   70.9728   66.6664 H   0  0  0  0  0  0  0  0  0  0  0  0
    4.0670   70.2246   69.1834 H   0  0  0  0  0  0  0  0  0  0  0  0
    1.5937   68.3452   64.2223 H   0  0  0  0  0  0  0  0  0  0  0  0
    1.0725   66.9344   68.0972 H   0  0  0  0  0  0  0  0  0  0  0  0
   -1.2432   66.2208   68.6920 H   0  0  0  0  0  0  0  0  0  0  0  0
   -0.5318   69.7720   65.2489 H   0  0  0  0  0  0  0  0  0  0  0  0
   -2.9254   69.8619   65.0522 H   0  0  0  0  0  0  0  0  0  0  0  0
   -4.2187   67.6439   67.1695 H   0  0  0  0  0  0  0  0  0  0  0  0
    6.0397   71.1058   70.0150 H   0  0  0  0  0  0  0  0  0  0  0  0
    5.8762   69.7950   63.6629 H   0  0  0  0  0  0  0  0  0  0  0  0
  2  1  2  0
  3  2  1  0
  4  3  2  0
  5  4  1  0
  6  5  2  0
  6  1  1  0
  7  5  1  0
  8  7  1  0
  9  8  2  0
 10  4  1  0
 10  9  1  0
 11 10  2  0
 12  8  1  0
 13 12  2  0
 14 13  1  0
 15 14  2  0
 16 15  1  0
 17 16  2  0
 17 12  1  0
 18 16  1  0
 19 15  1  0
 20  1  1  0
 21  3  1  0
  2 22  1  0
  6 23  1  0
  9 24  1  0
 13 25  1  0
 14 26  1  0
 17 27  1  0
 18 28  1  0
 19 29  1  0
 20 30  1  0
 21 31  1  0
M  END
>  <score>  (2) 
-9.834

$$$$
=
     RDKit          3D

 31 33  0  0  0  0  0  0  0  0999 V2000
    5.3260   69.2960   64.7130 C   0  0  0  0  0  0  0  0  0  0  0  0
    5.9430   69.6910   65.8960 C   0  0  0  0  0  0  0  0  0  0  0  0
    5.1710   69.8410   67.0530 C   0  0  0  0  0  0  0  0  0  0  0  0
    3.7900   69.5990   67.0260 C   0  0  0  0  0  0  0  0  0  0  0  0
    3.1940   69.2040   65.8250 C   0  0  0  0  0  0  0  0  0  0  0  0
    3.9600   69.0520   64.6680 C   0  0  0  0  0  0  0  0  0  0  0  0
    1.8510   68.9440   65.6950 O   0  0  0  0  0  0  0  0  0  0  0  0
    1.0440   69.0680   66.8090 C   0  0  0  0  0  0  0  0  0  0  0  0
    1.4850   69.4480   68.0150 C   0  0  0  0  0  0  0  0  0  0  0  0
    2.9150   69.7410   68.2130 C   0  0  0  0  0  0  0  0  0  0  0  0
    3.2990   70.0790   69.3240 O   0  0  0  0  0  0  0  0  0  0  0  0
   -0.3810   68.7700   66.5600 C   0  0  0  0  0  0  0  0  0  0  0  0
   -1.1840   68.1600   67.5400 C   0  0  0  0  0  0  0  0  0  0  0  0
   -2.5290   67.8730   67.2870 C   0  0  0  0  0  0  0  0  0  0  0  0
   -3.0800   68.1880   66.0490 C   0  0  0  0  0  0  0  0  0  0  0  0
   -2.2930   68.7830   65.0650 C   0  0  0  0  0  0  0  0  0  0  0  0
   -0.9510   69.0720   65.3130 C   0  0  0  0  0  0  0  0  0  0  0  0
   -2.8510   69.0830   63.8530 O   0  0  0  0  0  0  0  0  0  0  0  0
   -4.3920   67.9140   65.7860 O   0  0  0  0  0  0  0  0  0  0  0  0
    6.0340   69.1350   63.5600 O   0  0  0  0  0  0  0  0  0  0  0  0
    5.7890   70.2290   68.2080 O   0  0  0  0  0  0  0  0  0  0  0  0
    7.0258   69.8832   65.9212 H   0  0  0  0  0  0  0  0  0  0  0  0
    3.4842   68.7408   63.7263 H   0  0  0  0  0  0  0  0  0  0  0  0
    0.7814   69.5411   68.8554 H   0  0  0  0  0  0  0  0  0  0  0  0
   -0.7488   67.9055   68.5176 H   0  0  0  0  0  0  0  0  0  0  0  0
   -3.1486   67.4003   68.0633 H   0  0  0  0  0  0  0  0  0  0  0  0
   -0.3370   69.5383   64.5285 H   0  0  0  0  0  0  0  0  0  0  0  0
   -2.3017   69.5059   63.1462 H   0  0  0  0  0  0  0  0  0  0  0  0
   -4.7777   68.1408   64.9029 H   0  0  0  0  0  0  0  0  0  0  0  0
    5.5723   68.8531   62.7309 H   0  0  0  0  0  0  0  0  0  0  0  0
    5.2614   70.3411   69.0381 H   0  0  0  0  0  0  0  0  0  0  0  0
  2  1  2  0
  3  2  1  0
  4  3  2  0
  5  4  1  0
  6  5  2  0
  6  1  1  0
  7  5  1  0
  8  7  1  0
  9  8  2  0
 10  4  1  0
 10  9  1  0
 11 10  2  0
 12  8  1  0
 13 12  2  0
 14 13  1  0
 15 14  2  0
 16 15  1  0
 17 16  2  0
 17 12  1  0
 18 16  1  0
 19 15  1  0
 20  1  1  0
 21  3  1  0
  2 22  1  0
  6 23  1  0
  9 24  1  0
 13 25  1  0
 14 26  1  0
 17 27  1  0
 18 28  1  0
 19 29  1  0
 20 30  1  0
 21 31  1  0
M  END
>  <score>  (3) 
-9.788

$$$$
=
     RDKit          3D

 31 33  0  0  0  0  0  0  0  0999 V2000
    5.8960   69.9290   65.6210 C   0  0  0  0  0  0  0  0  0  0  0  0
    6.1850   69.7760   64.2680 C   0  0  0  0  0  0  0  0  0  0  0  0
    5.1780   69.3450   63.3980 C   0  0  0  0  0  0  0  0  0  0  0  0
    3.8890   69.0680   63.8790 C   0  0  0  0  0  0  0  0  0  0  0  0
    3.6250   69.2290   65.2420 C   0  0  0  0  0  0  0  0  0  0  0  0
    4.6260   69.6590   66.1140 C   0  0  0  0  0  0  0  0  0  0  0  0
    2.3980   68.9840   65.8100 O   0  0  0  0  0  0  0  0  0  0  0  0
    1.3650   68.5650   64.9940 C   0  0  0  0  0  0  0  0  0  0  0  0
    1.4860   68.3620   63.6760 C   0  0  0  0  0  0  0  0  0  0  0  0
    2.7800   68.6070   63.0140 C   0  0  0  0  0  0  0  0  0  0  0  0
    2.8670   68.4230   61.8070 O   0  0  0  0  0  0  0  0  0  0  0  0
    0.0920   68.3260   65.7040 C   0  0  0  0  0  0  0  0  0  0  0  0
   -1.1070   68.9240   65.2800 C   0  0  0  0  0  0  0  0  0  0  0  0
   -2.3030   68.6990   65.9680 C   0  0  0  0  0  0  0  0  0  0  0  0
   -2.3080   67.8770   67.0900 C   0  0  0  0  0  0  0  0  0  0  0  0
   -1.1250   67.2850   67.5290 C   0  0  0  0  0  0  0  0  0  0  0  0
    0.0710   67.5070   66.8440 C   0  0  0  0  0  0  0  0  0  0  0  0
   -1.1490   66.4830   68.6350 O   0  0  0  0  0  0  0  0  0  0  0  0
   -3.4680   67.6460   67.7740 O   0  0  0  0  0  0  0  0  0  0  0  0
    6.8420   70.3460   66.5090 O   0  0  0  0  0  0  0  0  0  0  0  0
    5.4740   69.1990   62.0720 O   0  0  0  0  0  0  0  0  0  0  0  0
    7.1942   69.9916   63.8871 H   0  0  0  0  0  0  0  0  0  0  0  0
    4.4105   69.7834   67.1855 H   0  0  0  0  0  0  0  0  0  0  0  0
    0.6230   68.0137   63.0895 H   0  0  0  0  0  0  0  0  0  0  0  0
   -1.1044   69.5776   64.3953 H   0  0  0  0  0  0  0  0  0  0  0  0
   -3.2356   69.1698   65.6237 H   0  0  0  0  0  0  0  0  0  0  0  0
    1.0007   67.0383   67.1990 H   0  0  0  0  0  0  0  0  0  0  0  0
   -0.3148   66.0573   68.9559 H   0  0  0  0  0  0  0  0  0  0  0  0
   -3.4639   67.0598   68.5718 H   0  0  0  0  0  0  0  0  0  0  0  0
    6.6117   70.4471   67.4665 H   0  0  0  0  0  0  0  0  0  0  0  0
    4.7757   68.8951   61.4395 H   0  0  0  0  0  0  0  0  0  0  0  0
  2  1  2  0
  3  2  1  0
  4  3  2  0
  5  4  1  0
  6  5  2  0
  6  1  1  0
  7  5  1  0
  8  7  1  0
  9  8  2  0
 10  4  1  0
 10  9  1  0
 11 10  2  0
 12  8  1  0
 13 12  2  0
 14 13  1  0
 15 14  2  0
 16 15  1  0
 17 16  2  0
 17 12  1  0
 18 16  1  0
 19 15  1  0
 20  1  1  0
 21  3  1  0
  2 22  1  0
  6 23  1  0
  9 24  1  0
 13 25  1  0
 14 26  1  0
 17 27  1  0
 18 28  1  0
 19 29  1  0
 20 30  1  0
 21 31  1  0
M  END
>  <score>  (4) 
-9.379

$$$$
=
     RDKit          3D

 31 33  0  0  0  0  0  0  0  0999 V2000
   -2.4800   68.7630   65.1210 C   0  0  0  0  0  0  0  0  0  0  0  0
   -3.0140   67.9790   66.1390 C   0  0  0  0  0  0  0  0  0  0  0  0
   -2.1890   67.5720   67.1920 C   0  0  0  0  0  0  0  0  0  0  0  0
   -0.8380   67.9470   67.2270 C   0  0  0  0  0  0  0  0  0  0  0  0
   -0.3260   68.7350   66.1930 C   0  0  0  0  0  0  0  0  0  0  0  0
   -1.1450   69.1440   65.1390 C   0  0  0  0  0  0  0  0  0  0  0  0
    0.9810   69.1540   66.1350 O   0  0  0  0  0  0  0  0  0  0  0  0
    1.8380   68.7880   67.1550 C   0  0  0  0  0  0  0  0  0  0  0  0
    1.4790   68.0290   68.1980 C   0  0  0  0  0  0  0  0  0  0  0  0
    0.0900   67.5500   68.3110 C   0  0  0  0  0  0  0  0  0  0  0  0
   -0.2200   66.8630   69.2760 O   0  0  0  0  0  0  0  0  0  0  0  0
    3.2190   69.2870   66.9950 C   0  0  0  0  0  0  0  0  0  0  0  0
    3.8850   69.9460   68.0410 C   0  0  0  0  0  0  0  0  0  0  0  0
    5.1890   70.4240   67.8720 C   0  0  0  0  0  0  0  0  0  0  0  0
    5.8330   70.2490   66.6510 C   0  0  0  0  0  0  0  0  0  0  0  0
    5.1810   69.6060   65.6010 C   0  0  0  0  0  0  0  0  0  0  0  0
    3.8800   69.1280   65.7660 C   0  0  0  0  0  0  0  0  0  0  0  0
    5.8290   69.4470   64.4080 O   0  0  0  0  0  0  0  0  0  0  0  0
    7.1070   70.7090   66.4690 O   0  0  0  0  0  0  0  0  0  0  0  0
   -3.2420   69.1850   64.0730 O   0  0  0  0  0  0  0  0  0  0  0  0
   -2.7250   66.8010   68.1860 O   0  0  0  0  0  0  0  0  0  0  0  0
   -4.0731   67.6828   66.1156 H   0  0  0  0  0  0  0  0  0  0  0  0
   -0.7353   69.7641   64.3280 H   0  0  0  0  0  0  0  0  0  0  0  0
    2.2185   67.7639   68.9680 H   0  0  0  0  0  0  0  0  0  0  0  0
    3.3751   70.0882   69.0053 H   0  0  0  0  0  0  0  0  0  0  0  0
    5.7023   70.9353   68.6997 H   0  0  0  0  0  0  0  0  0  0  0  0
    3.3707   68.6251   64.9307 H   0  0  0  0  0  0  0  0  0  0  0  0
    5.3753   68.9916   63.6551 H   0  0  0  0  0  0  0  0  0  0  0  0
    7.5597   70.5813   65.5978 H   0  0  0  0  0  0  0  0  0  0  0  0
   -2.8391   69.7422   63.3607 H   0  0  0  0  0  0  0  0  0  0  0  0
   -2.1583   66.5021   68.9407 H   0  0  0  0  0  0  0  0  0  0  0  0
  2  1  2  0
  3  2  1  0
  4  3  2  0
  5  4  1  0
  6  5  2  0
  6  1  1  0
  7  5  1  0
  8  7  1  0
  9  8  2  0
 10  4  1  0
 10  9  1  0
 11 10  2  0
 12  8  1  0
 13 12  2  0
 14 13  1  0
 15 14  2  0
 16 15  1  0
 17 16  2  0
 17 12  1  0
 18 16  1  0
 19 15  1  0
 20  1  1  0
 21  3  1  0
  2 22  1  0
  6 23  1  0
  9 24  1  0
 13 25  1  0
 14 26  1  0
 17 27  1  0
 18 28  1  0
 19 29  1  0
 20 30  1  0
 21 31  1  0
M  END
>  <score>  (5) 
-9.346

$$$$
=
     RDKit          3D

 31 33  0  0  0  0  0  0  0  0999 V2000
   -2.8330   68.6190   65.9120 C   0  0  0  0  0  0  0  0  0  0  0  0
   -2.7590   67.9300   67.1190 C   0  0  0  0  0  0  0  0  0  0  0  0
   -1.5150   67.4760   67.5710 C   0  0  0  0  0  0  0  0  0  0  0  0
   -0.3540   67.7080   66.8200 C   0  0  0  0  0  0  0  0  0  0  0  0
   -0.4560   68.4020   65.6110 C   0  0  0  0  0  0  0  0  0  0  0  0
   -1.6940   68.8580   65.1560 C   0  0  0  0  0  0  0  0  0  0  0  0
    0.6200   68.6800   64.8030 O   0  0  0  0  0  0  0  0  0  0  0  0
    1.8740   68.2620   65.2070 C   0  0  0  0  0  0  0  0  0  0  0  0
    2.1090   67.5810   66.3360 C   0  0  0  0  0  0  0  0  0  0  0  0
    0.9910   67.2540   67.2400 C   0  0  0  0  0  0  0  0  0  0  0  0
    1.2290   66.6380   68.2700 O   0  0  0  0  0  0  0  0  0  0  0  0
    2.9590   68.6070   64.2670 C   0  0  0  0  0  0  0  0  0  0  0  0
    4.1790   69.1370   64.7190 C   0  0  0  0  0  0  0  0  0  0  0  0
    5.1950   69.4710   63.8170 C   0  0  0  0  0  0  0  0  0  0  0  0
    4.9940   69.2800   62.4530 C   0  0  0  0  0  0  0  0  0  0  0  0
    3.7850   68.7650   61.9890 C   0  0  0  0  0  0  0  0  0  0  0  0
    2.7700   68.4310   62.8870 C   0  0  0  0  0  0  0  0  0  0  0  0
    3.6050   68.5880   60.6460 O   0  0  0  0  0  0  0  0  0  0  0  0
    5.9750   69.6010   61.5580 O   0  0  0  0  0  0  0  0  0  0  0  0
   -4.0200   69.0820   65.4280 O   0  0  0  0  0  0  0  0  0  0  0  0
   -1.4550   66.8010   68.7580 O   0  0  0  0  0  0  0  0  0  0  0  0
   -3.6676   67.7446   67.7106 H   0  0  0  0  0  0  0  0  0  0  0  0
   -1.7666   69.4037   64.2037 H   0  0  0  0  0  0  0  0  0  0  0  0
    3.1326   67.2667   66.5880 H   0  0  0  0  0  0  0  0  0  0  0  0
    4.3376   69.2915   65.7965 H   0  0  0  0  0  0  0  0  0  0  0  0
    6.1471   69.8822   64.1836 H   0  0  0  0  0  0  0  0  0  0  0  0
    1.8177   68.0281   62.5118 H   0  0  0  0  0  0  0  0  0  0  0  0
    2.7503   68.2229   60.3050 H   0  0  0  0  0  0  0  0  0  0  0  0
    5.8257   69.4627   60.5891 H   0  0  0  0  0  0  0  0  0  0  0  0
   -4.0471   69.5695   64.5668 H   0  0  0  0  0  0  0  0  0  0  0  0
   -0.5851   66.4710   69.0964 H   0  0  0  0  0  0  0  0  0  0  0  0
  2  1  2  0
  3  2  1  0
  4  3  2  0
  5  4  1  0
  6  5  2  0
  6  1  1  0
  7  5  1  0
  8  7  1  0
  9  8  2  0
 10  4  1  0
 10  9  1  0
 11 10  2  0
 12  8  1  0
 13 12  2  0
 14 13  1  0
 15 14  2  0
 16 15  1  0
 17 16  2  0
 17 12  1  0
 18 16  1  0
 19 15  1  0
 20  1  1  0
 21  3  1  0
  2 22  1  0
  6 23  1  0
  9 24  1  0
 13 25  1  0
 14 26  1  0
 17 27  1  0
 18 28  1  0
 19 29  1  0
 20 30  1  0
 21 31  1  0
M  END
>  <score>  (6) 
-9.233

$$$$
=
     RDKit          3D

 31 33  0  0  0  0  0  0  0  0999 V2000
    0.0460   66.6400   69.0970 C   0  0  0  0  0  0  0  0  0  0  0  0
   -1.2940   66.9170   68.8440 C   0  0  0  0  0  0  0  0  0  0  0  0
   -1.6500   67.5220   67.6340 C   0  0  0  0  0  0  0  0  0  0  0  0
   -0.6720   67.8470   66.6830 C   0  0  0  0  0  0  0  0  0  0  0  0
    0.6670   67.5580   66.9610 C   0  0  0  0  0  0  0  0  0  0  0  0
    1.0270   66.9550   68.1670 C   0  0  0  0  0  0  0  0  0  0  0  0
    1.6980   67.8380   66.0980 O   0  0  0  0  0  0  0  0  0  0  0  0
    1.4010   68.4260   64.8830 C   0  0  0  0  0  0  0  0  0  0  0  0
    0.1640   68.7630   64.4970 C   0  0  0  0  0  0  0  0  0  0  0  0
   -0.9810   68.4890   65.3850 C   0  0  0  0  0  0  0  0  0  0  0  0
   -2.1040   68.7970   65.0100 O   0  0  0  0  0  0  0  0  0  0  0  0
    2.5790   68.6870   64.0320 C   0  0  0  0  0  0  0  0  0  0  0  0
    3.8130   69.0670   64.5870 C   0  0  0  0  0  0  0  0  0  0  0  0
    4.9190   69.3220   63.7690 C   0  0  0  0  0  0  0  0  0  0  0  0
    4.7950   69.2040   62.3880 C   0  0  0  0  0  0  0  0  0  0  0  0
    3.5750   68.8390   61.8230 C   0  0  0  0  0  0  0  0  0  0  0  0
    2.4700   68.5830   62.6360 C   0  0  0  0  0  0  0  0  0  0  0  0
    3.4720   68.7310   60.4650 O   0  0  0  0  0  0  0  0  0  0  0  0
    5.8650   69.4500   61.5740 O   0  0  0  0  0  0  0  0  0  0  0  0
    0.4440   66.0520   70.2600 O   0  0  0  0  0  0  0  0  0  0  0  0
   -2.9690   67.7890   67.3980 O   0  0  0  0  0  0  0  0  0  0  0  0
   -2.0645   66.6632   69.5869 H   0  0  0  0  0  0  0  0  0  0  0  0
    2.0827   66.7305   68.3794 H   0  0  0  0  0  0  0  0  0  0  0  0
    0.0023   69.2428   63.5204 H   0  0  0  0  0  0  0  0  0  0  0  0
    3.9105   69.1652   65.6783 H   0  0  0  0  0  0  0  0  0  0  0  0
    5.8812   69.6141   64.2150 H   0  0  0  0  0  0  0  0  0  0  0  0
    1.5096   68.2986   62.1813 H   0  0  0  0  0  0  0  0  0  0  0  0
    2.6098   68.4723   60.0530 H   0  0  0  0  0  0  0  0  0  0  0  0
    5.7702   69.3643   60.5923 H   0  0  0  0  0  0  0  0  0  0  0  0
    1.4034   65.8649   70.4170 H   0  0  0  0  0  0  0  0  0  0  0  0
   -3.2431   68.2167   66.5483 H   0  0  0  0  0  0  0  0  0  0  0  0
  2  1  2  0
  3  2  1  0
  4  3  2  0
  5  4  1  0
  6  5  2  0
  6  1  1  0
  7  5  1  0
  8  7  1  0
  9  8  2  0
 10  4  1  0
 10  9  1  0
 11 10  2  0
 12  8  1  0
 13 12  2  0
 14 13  1  0
 15 14  2  0
 16 15  1  0
 17 16  2  0
 17 12  1  0
 18 16  1  0
 19 15  1  0
 20  1  1  0
 21  3  1  0
  2 22  1  0
  6 23  1  0
  9 24  1  0
 13 25  1  0
 14 26  1  0
 17 27  1  0
 18 28  1  0
 19 29  1  0
 20 30  1  0
 21 31  1  0
M  END
>  <score>  (7) 
-9.135

$$$$
=
     RDKit          3D

 31 33  0  0  0  0  0  0  0  0999 V2000
    6.8420   70.9430   68.7920 C   0  0  0  0  0  0  0  0  0  0  0  0
    5.8430   70.9100   69.7590 C   0  0  0  0  0  0  0  0  0  0  0  0
    4.5530   70.5080   69.3960 C   0  0  0  0  0  0  0  0  0  0  0  0
    4.2650   70.1410   68.0730 C   0  0  0  0  0  0  0  0  0  0  0  0
    5.2870   70.1830   67.1200 C   0  0  0  0  0  0  0  0  0  0  0  0
    6.5750   70.5840   67.4780 C   0  0  0  0  0  0  0  0  0  0  0  0
    5.1070   69.8460   65.8010 O   0  0  0  0  0  0  0  0  0  0  0  0
    3.8540   69.4320   65.3900 C   0  0  0  0  0  0  0  0  0  0  0  0
    2.7880   69.3560   66.1970 C   0  0  0  0  0  0  0  0  0  0  0  0
    2.9230   69.7080   67.6220 C   0  0  0  0  0  0  0  0  0  0  0  0
    1.9390   69.6250   68.3440 O   0  0  0  0  0  0  0  0  0  0  0  0
    3.7680   69.0960   63.9540 C   0  0  0  0  0  0  0  0  0  0  0  0
    4.9210   68.8470   63.1900 C   0  0  0  0  0  0  0  0  0  0  0  0
    4.8260   68.5420   61.8280 C   0  0  0  0  0  0  0  0  0  0  0  0
    3.5750   68.4880   61.2200 C   0  0  0  0  0  0  0  0  0  0  0  0
    2.4250   68.7440   61.9630 C   0  0  0  0  0  0  0  0  0  0  0  0
    2.5150   69.0480   63.3220 C   0  0  0  0  0  0  0  0  0  0  0  0
    1.2050   68.6900   61.3470 O   0  0  0  0  0  0  0  0  0  0  0  0
    3.4650   68.1910   59.8910 O   0  0  0  0  0  0  0  0  0  0  0  0
    8.1140   71.3270   69.0950 O   0  0  0  0  0  0  0  0  0  0  0  0
    3.5800   70.4800   70.3550 O   0  0  0  0  0  0  0  0  0  0  0  0
    6.0646   71.1967   70.7976 H   0  0  0  0  0  0  0  0  0  0  0  0
    7.3743   70.6154   66.7229 H   0  0  0  0  0  0  0  0  0  0  0  0
    1.8154   69.0321   65.7980 H   0  0  0  0  0  0  0  0  0  0  0  0
    5.9103   68.8925   63.6688 H   0  0  0  0  0  0  0  0  0  0  0  0
    5.7351   68.3459   61.2406 H   0  0  0  0  0  0  0  0  0  0  0  0
    1.6013   69.2507   63.9001 H   0  0  0  0  0  0  0  0  0  0  0  0
    0.3806   68.8701   61.8648 H   0  0  0  0  0  0  0  0  0  0  0  0
    2.5725   68.1541   59.4643 H   0  0  0  0  0  0  0  0  0  0  0  0
    8.8079   71.3423   68.3890 H   0  0  0  0  0  0  0  0  0  0  0  0
    2.6606   70.1986   70.1192 H   0  0  0  0  0  0  0  0  0  0  0  0
  2  1  2  0
  3  2  1  0
  4  3  2  0
  5  4  1  0
  6  5  2  0
  6  1  1  0
  7  5  1  0
  8  7  1  0
  9  8  2  0
 10  4  1  0
 10  9  1  0
 11 10  2  0
 12  8  1  0
 13 12  2  0
 14 13  1  0
 15 14  2  0
 16 15  1  0
 17 16  2  0
 17 12  1  0
 18 16  1  0
 19 15  1  0
 20  1  1  0
 21  3  1  0
  2 22  1  0
  6 23  1  0
  9 24  1  0
 13 25  1  0
 14 26  1  0
 17 27  1  0
 18 28  1  0
 19 29  1  0
 20 30  1  0
 21 31  1  0
M  END
>  <score>  (8) 
-8.88

$$$$
=
     RDKit          3D

 31 33  0  0  0  0  0  0  0  0999 V2000
    4.1230   62.2990   71.0890 C   0  0  0  0  0  0  0  0  0  0  0  0
    3.5450   61.9530   72.3070 C   0  0  0  0  0  0  0  0  0  0  0  0
    2.3680   62.5910   72.7110 C   0  0  0  0  0  0  0  0  0  0  0  0
    1.7710   63.5690   71.9020 C   0  0  0  0  0  0  0  0  0  0  0  0
    2.3710   63.8990   70.6830 C   0  0  0  0  0  0  0  0  0  0  0  0
    3.5470   63.2650   70.2760 C   0  0  0  0  0  0  0  0  0  0  0  0
    1.8670   64.8420   69.8210 O   0  0  0  0  0  0  0  0  0  0  0  0
    0.7000   65.4960   70.1670 C   0  0  0  0  0  0  0  0  0  0  0  0
    0.0320   65.2820   71.3070 C   0  0  0  0  0  0  0  0  0  0  0  0
    0.5280   64.2830   72.2710 C   0  0  0  0  0  0  0  0  0  0  0  0
   -0.1030   64.0970   73.3030 O   0  0  0  0  0  0  0  0  0  0  0  0
    0.2470   66.4910   69.1740 C   0  0  0  0  0  0  0  0  0  0  0  0
    1.1210   67.4660   68.6630 C   0  0  0  0  0  0  0  0  0  0  0  0
    0.6760   68.4100   67.7320 C   0  0  0  0  0  0  0  0  0  0  0  0
   -0.6500   68.3880   67.3090 C   0  0  0  0  0  0  0  0  0  0  0  0
   -1.5310   67.4350   67.8160 C   0  0  0  0  0  0  0  0  0  0  0  0
   -1.0900   66.4910   68.7450 C   0  0  0  0  0  0  0  0  0  0  0  0
   -2.8300   67.4320   67.3920 O   0  0  0  0  0  0  0  0  0  0  0  0
   -1.1010   69.3030   66.4010 O   0  0  0  0  0  0  0  0  0  0  0  0
    5.2690   61.7070   70.6510 O   0  0  0  0  0  0  0  0  0  0  0  0
    1.8110   62.2420   73.9090 O   0  0  0  0  0  0  0  0  0  0  0  0
    4.0089   61.1862   72.9448 H   0  0  0  0  0  0  0  0  0  0  0  0
    4.0142   63.5300   69.3161 H   0  0  0  0  0  0  0  0  0  0  0  0
   -0.8846   65.8500   71.5240 H   0  0  0  0  0  0  0  0  0  0  0  0
    2.1680   67.4868   68.9995 H   0  0  0  0  0  0  0  0  0  0  0  0
    1.3702   69.1659   67.3361 H   0  0  0  0  0  0  0  0  0  0  0  0
   -1.7928   65.7440   69.1426 H   0  0  0  0  0  0  0  0  0  0  0  0
   -3.4646   66.7594   67.7456 H   0  0  0  0  0  0  0  0  0  0  0  0
   -2.0452   69.2819   66.1043 H   0  0  0  0  0  0  0  0  0  0  0  0
    5.6608   61.9703   69.7808 H   0  0  0  0  0  0  0  0  0  0  0  0
    0.9779   62.6812   74.2142 H   0  0  0  0  0  0  0  0  0  0  0  0
  2  1  2  0
  3  2  1  0
  4  3  2  0
  5  4  1  0
  6  5  2  0
  6  1  1  0
  7  5  1  0
  8  7  1  0
  9  8  2  0
 10  4  1  0
 10  9  1  0
 11 10  2  0
 12  8  1  0
 13 12  2  0
 14 13  1  0
 15 14  2  0
 16 15  1  0
 17 16  2  0
 17 12  1  0
 18 16  1  0
 19 15  1  0
 20  1  1  0
 21  3  1  0
  2 22  1  0
  6 23  1  0
  9 24  1  0
 13 25  1  0
 14 26  1  0
 17 27  1  0
 18 28  1  0
 19 29  1  0
 20 30  1  0
 21 31  1  0
M  END
>  <score>  (9) 
-8.377

$$$$
