=
     RDKit          3D

 24 26  0  0  0  0  0  0  0  0999 V2000
    3.6960   70.9410   70.1400 O   0  0  0  0  0  0  0  0  0  0  0  0
    3.4780   70.4640   69.0330 C   0  0  0  0  0  0  0  0  0  0  0  0
    2.2290   70.0310   68.6630 N   0  0  0  0  0  0  0  0  0  0  0  0
    1.8760   69.4510   67.4710 C   0  0  0  0  0  0  0  0  0  0  0  0
    0.7340   69.0660   67.2520 O   0  0  0  0  0  0  0  0  0  0  0  0
    2.9530   69.3110   66.4640 C   0  0  0  0  0  0  0  0  0  0  0  0
    4.2520   69.7530   66.7670 C   0  0  0  0  0  0  0  0  0  0  0  0
    4.5500   70.3160   68.0220 C   0  0  0  0  0  0  0  0  0  0  0  0
    5.8440   70.7370   68.3410 C   0  0  0  0  0  0  0  0  0  0  0  0
    6.8610   70.5970   67.4070 C   0  0  0  0  0  0  0  0  0  0  0  0
    6.5820   70.0430   66.1540 C   0  0  0  0  0  0  0  0  0  0  0  0
    5.2800   69.6160   65.7980 C   0  0  0  0  0  0  0  0  0  0  0  0
    4.9550   69.0660   64.5250 C   0  0  0  0  0  0  0  0  0  0  0  0
    3.6620   68.5880   64.2810 C   0  0  0  0  0  0  0  0  0  0  0  0
    2.6580   68.7240   65.2330 C   0  0  0  0  0  0  0  0  0  0  0  0
    5.9260   68.7920   63.5390 N   0  0  0  0  0  0  0  0  0  0  0  0
    1.4759   70.1549   69.3547 H   0  0  0  0  0  0  0  0  0  0  0  0
    6.0552   71.1769   69.3269 H   0  0  0  0  0  0  0  0  0  0  0  0
    7.8833   70.9209   67.6518 H   0  0  0  0  0  0  0  0  0  0  0  0
    7.3976   69.9358   65.4238 H   0  0  0  0  0  0  0  0  0  0  0  0
    3.4372   68.0978   63.3223 H   0  0  0  0  0  0  0  0  0  0  0  0
    1.6386   68.3715   65.0174 H   0  0  0  0  0  0  0  0  0  0  0  0
    5.6415   68.3938   62.6327 H   0  0  0  0  0  0  0  0  0  0  0  0
    6.9194   68.9901   63.7254 H   0  0  0  0  0  0  0  0  0  0  0  0
  2  1  2  0
  3  2  1  0
  4  3  1  0
  5  4  2  0
  6  4  1  0
  7  6  1  0
  8  7  2  0
  8  2  1  0
  9  8  1  0
 10  9  2  0
 11 10  1  0
 12  7  1  0
 12 11  2  0
 13 12  1  0
 14 13  2  0
 15 14  1  0
 15  6  2  0
 16 13  1  0
  3 17  1  0
  9 18  1  0
 10 19  1  0
 11 20  1  0
 14 21  1  0
 15 22  1  0
 16 23  1  0
 16 24  1  0
M  END
>  <score>  (1) 
-10.249

$$$$
=
     RDKit          3D

 24 26  0  0  0  0  0  0  0  0999 V2000
   -0.3150   68.6620   67.3500 O   0  0  0  0  0  0  0  0  0  0  0  0
    0.8750   68.9520   67.3090 C   0  0  0  0  0  0  0  0  0  0  0  0
    1.5550   69.3820   68.4210 N   0  0  0  0  0  0  0  0  0  0  0  0
    2.8710   69.7660   68.4860 C   0  0  0  0  0  0  0  0  0  0  0  0
    3.3760   70.1700   69.5260 O   0  0  0  0  0  0  0  0  0  0  0  0
    3.6470   69.6700   67.2280 C   0  0  0  0  0  0  0  0  0  0  0  0
    3.0190   69.2160   66.0550 C   0  0  0  0  0  0  0  0  0  0  0  0
    1.6570   68.8630   66.0540 C   0  0  0  0  0  0  0  0  0  0  0  0
    1.0180   68.4330   64.8870 C   0  0  0  0  0  0  0  0  0  0  0  0
    1.7360   68.3530   63.7030 C   0  0  0  0  0  0  0  0  0  0  0  0
    3.0900   68.6960   63.6860 C   0  0  0  0  0  0  0  0  0  0  0  0
    3.7680   69.1260   64.8520 C   0  0  0  0  0  0  0  0  0  0  0  0
    5.1500   69.4650   64.8770 C   0  0  0  0  0  0  0  0  0  0  0  0
    5.7260   69.9640   66.0520 C   0  0  0  0  0  0  0  0  0  0  0  0
    4.9890   70.0510   67.2280 C   0  0  0  0  0  0  0  0  0  0  0  0
    5.9490   69.5100   63.7150 N   0  0  0  0  0  0  0  0  0  0  0  0
    1.0206   69.4206   69.3007 H   0  0  0  0  0  0  0  0  0  0  0  0
   -0.0474   68.1599   64.9078 H   0  0  0  0  0  0  0  0  0  0  0  0
    1.2402   68.0201   62.7792 H   0  0  0  0  0  0  0  0  0  0  0  0
    3.6457   68.6301   62.7390 H   0  0  0  0  0  0  0  0  0  0  0  0
    6.7760   70.2917   66.0445 H   0  0  0  0  0  0  0  0  0  0  0  0
    5.4608   70.4176   68.1516 H   0  0  0  0  0  0  0  0  0  0  0  0
    6.9455   69.7611   63.7846 H   0  0  0  0  0  0  0  0  0  0  0  0
    5.5358   69.2918   62.7971 H   0  0  0  0  0  0  0  0  0  0  0  0
  2  1  2  0
  3  2  1  0
  4  3  1  0
  5  4  2  0
  6  4  1  0
  7  6  1  0
  8  7  2  0
  8  2  1  0
  9  8  1  0
 10  9  2  0
 11 10  1  0
 12  7  1  0
 12 11  2  0
 13 12  1  0
 14 13  2  0
 15 14  1  0
 15  6  2  0
 16 13  1  0
  3 17  1  0
  9 18  1  0
 10 19  1  0
 11 20  1  0
 14 21  1  0
 15 22  1  0
 16 23  1  0
 16 24  1  0
M  END
>  <score>  (2) 
-9.937

$$$$
=
     RDKit          3D

 24 26  0  0  0  0  0  0  0  0999 V2000
    2.2790   69.4080   68.6090 O   0  0  0  0  0  0  0  0  0  0  0  0
    2.2280   69.1810   67.4060 C   0  0  0  0  0  0  0  0  0  0  0  0
    1.0800   68.7370   66.8000 N   0  0  0  0  0  0  0  0  0  0  0  0
    0.9160   68.4190   65.4760 C   0  0  0  0  0  0  0  0  0  0  0  0
   -0.1480   67.9950   65.0390 O   0  0  0  0  0  0  0  0  0  0  0  0
    2.0970   68.6110   64.6020 C   0  0  0  0  0  0  0  0  0  0  0  0
    3.3000   69.0840   65.1520 C   0  0  0  0  0  0  0  0  0  0  0  0
    3.4060   69.3660   66.5270 C   0  0  0  0  0  0  0  0  0  0  0  0
    4.6050   69.8150   67.0870 C   0  0  0  0  0  0  0  0  0  0  0  0
    5.7190   69.9850   66.2770 C   0  0  0  0  0  0  0  0  0  0  0  0
    5.6310   69.7130   64.9090 C   0  0  0  0  0  0  0  0  0  0  0  0
    4.4290   69.2670   64.3100 C   0  0  0  0  0  0  0  0  0  0  0  0
    4.2970   68.9990   62.9180 C   0  0  0  0  0  0  0  0  0  0  0  0
    3.0980   68.4770   62.4180 C   0  0  0  0  0  0  0  0  0  0  0  0
    1.9950   68.3010   63.2460 C   0  0  0  0  0  0  0  0  0  0  0  0
    5.3860   69.0470   62.0220 N   0  0  0  0  0  0  0  0  0  0  0  0
    0.2526   68.6311   67.4042 H   0  0  0  0  0  0  0  0  0  0  0  0
    4.6655   70.0324   68.1636 H   0  0  0  0  0  0  0  0  0  0  0  0
    6.6683   70.3328   66.7104 H   0  0  0  0  0  0  0  0  0  0  0  0
    6.5225   69.8496   64.2792 H   0  0  0  0  0  0  0  0  0  0  0  0
    3.0276   68.2023   61.3552 H   0  0  0  0  0  0  0  0  0  0  0  0
    1.0487   67.9200   62.8345 H   0  0  0  0  0  0  0  0  0  0  0  0
    5.2399   68.8450   61.0226 H   0  0  0  0  0  0  0  0  0  0  0  0
    6.3270   69.2841   62.3673 H   0  0  0  0  0  0  0  0  0  0  0  0
  2  1  2  0
  3  2  1  0
  4  3  1  0
  5  4  2  0
  6  4  1  0
  7  6  1  0
  8  7  2  0
  8  2  1  0
  9  8  1  0
 10  9  2  0
 11 10  1  0
 12  7  1  0
 12 11  2  0
 13 12  1  0
 14 13  2  0
 15 14  1  0
 15  6  2  0
 16 13  1  0
  3 17  1  0
  9 18  1  0
 10 19  1  0
 11 20  1  0
 14 21  1  0
 15 22  1  0
 16 23  1  0
 16 24  1  0
M  END
>  <score>  (3) 
-9.768

$$$$
=
     RDKit          3D

 24 26  0  0  0  0  0  0  0  0999 V2000
    6.4990   70.6930   67.2090 O   0  0  0  0  0  0  0  0  0  0  0  0
    5.6970   70.2130   66.4180 C   0  0  0  0  0  0  0  0  0  0  0  0
    6.0170   70.0020   65.0990 N   0  0  0  0  0  0  0  0  0  0  0  0
    5.1940   69.5060   64.1200 C   0  0  0  0  0  0  0  0  0  0  0  0
    5.5680   69.3890   62.9590 O   0  0  0  0  0  0  0  0  0  0  0  0
    3.8260   69.1240   64.5420 C   0  0  0  0  0  0  0  0  0  0  0  0
    3.4380   69.2930   65.8820 C   0  0  0  0  0  0  0  0  0  0  0  0
    4.3260   69.8330   66.8300 C   0  0  0  0  0  0  0  0  0  0  0  0
    3.9420   70.0260   68.1600 C   0  0  0  0  0  0  0  0  0  0  0  0
    2.6570   69.6830   68.5580 C   0  0  0  0  0  0  0  0  0  0  0  0
    1.7630   69.1410   67.6310 C   0  0  0  0  0  0  0  0  0  0  0  0
    2.1260   68.9250   66.2790 C   0  0  0  0  0  0  0  0  0  0  0  0
    1.2480   68.3590   65.3120 C   0  0  0  0  0  0  0  0  0  0  0  0
    1.6540   68.2570   63.9760 C   0  0  0  0  0  0  0  0  0  0  0  0
    2.9400   68.6180   63.5900 C   0  0  0  0  0  0  0  0  0  0  0  0
   -0.1040   68.0620   65.5850 N   0  0  0  0  0  0  0  0  0  0  0  0
    6.9775   70.2418   64.8146 H   0  0  0  0  0  0  0  0  0  0  0  0
    4.6530   70.4467   68.8863 H   0  0  0  0  0  0  0  0  0  0  0  0
    2.3433   69.8376   69.6009 H   0  0  0  0  0  0  0  0  0  0  0  0
    0.7480   68.8744   67.9607 H   0  0  0  0  0  0  0  0  0  0  0  0
    0.9454   67.8859   63.2209 H   0  0  0  0  0  0  0  0  0  0  0  0
    3.2565   68.5056   62.5425 H   0  0  0  0  0  0  0  0  0  0  0  0
   -0.6997   67.6526   64.8512 H   0  0  0  0  0  0  0  0  0  0  0  0
   -0.4953   68.2545   66.5181 H   0  0  0  0  0  0  0  0  0  0  0  0
  2  1  2  0
  3  2  1  0
  4  3  1  0
  5  4  2  0
  6  4  1  0
  7  6  1  0
  8  7  2  0
  8  2  1  0
  9  8  1  0
 10  9  2  0
 11 10  1  0
 12  7  1  0
 12 11  2  0
 13 12  1  0
 14 13  2  0
 15 14  1  0
 15  6  2  0
 16 13  1  0
  3 17  1  0
  9 18  1  0
 10 19  1  0
 11 20  1  0
 14 21  1  0
 15 22  1  0
 16 23  1  0
 16 24  1  0
M  END
>  <score>  (4) 
-9.732

$$$$
=
     RDKit          3D

 24 26  0  0  0  0  0  0  0  0999 V2000
    6.8730   70.5950   66.9590 O   0  0  0  0  0  0  0  0  0  0  0  0
    5.6950   70.3360   67.1770 C   0  0  0  0  0  0  0  0  0  0  0  0
    5.1130   70.5810   68.3960 N   0  0  0  0  0  0  0  0  0  0  0  0
    3.8200   70.3020   68.7630 C   0  0  0  0  0  0  0  0  0  0  0  0
    3.4060   70.5280   69.8940 O   0  0  0  0  0  0  0  0  0  0  0  0
    2.9540   69.7060   67.7200 C   0  0  0  0  0  0  0  0  0  0  0  0
    3.4790   69.4490   66.4420 C   0  0  0  0  0  0  0  0  0  0  0  0
    4.8230   69.7360   66.1400 C   0  0  0  0  0  0  0  0  0  0  0  0
    5.3610   69.4620   64.8800 C   0  0  0  0  0  0  0  0  0  0  0  0
    4.5580   68.8920   63.9020 C   0  0  0  0  0  0  0  0  0  0  0  0
    3.2200   68.6040   64.1820 C   0  0  0  0  0  0  0  0  0  0  0  0
    2.6440   68.8780   65.4460 C   0  0  0  0  0  0  0  0  0  0  0  0
    1.2810   68.6160   65.7610 C   0  0  0  0  0  0  0  0  0  0  0  0
    0.8090   68.8350   67.0610 C   0  0  0  0  0  0  0  0  0  0  0  0
    1.6300   69.3950   68.0330 C   0  0  0  0  0  0  0  0  0  0  0  0
    0.4040   67.9540   64.8760 N   0  0  0  0  0  0  0  0  0  0  0  0
    5.7098   71.0208   69.1110 H   0  0  0  0  0  0  0  0  0  0  0  0
    6.4139   69.6965   64.6646 H   0  0  0  0  0  0  0  0  0  0  0  0
    4.9741   68.6675   62.9088 H   0  0  0  0  0  0  0  0  0  0  0  0
    2.5958   68.1512   63.3976 H   0  0  0  0  0  0  0  0  0  0  0  0
   -0.2251   68.5603   67.3165 H   0  0  0  0  0  0  0  0  0  0  0  0
    1.2387   69.5917   69.0421 H   0  0  0  0  0  0  0  0  0  0  0  0
   -0.5749   67.7874   65.1497 H   0  0  0  0  0  0  0  0  0  0  0  0
    0.7427   67.6374   63.9562 H   0  0  0  0  0  0  0  0  0  0  0  0
  2  1  2  0
  3  2  1  0
  4  3  1  0
  5  4  2  0
  6  4  1  0
  7  6  1  0
  8  7  2  0
  8  2  1  0
  9  8  1  0
 10  9  2  0
 11 10  1  0
 12  7  1  0
 12 11  2  0
 13 12  1  0
 14 13  2  0
 15 14  1  0
 15  6  2  0
 16 13  1  0
  3 17  1  0
  9 18  1  0
 10 19  1  0
 11 20  1  0
 14 21  1  0
 15 22  1  0
 16 23  1  0
 16 24  1  0
M  END
>  <score>  (5) 
-9.66

$$$$
=
     RDKit          3D

 24 26  0  0  0  0  0  0  0  0999 V2000
    5.6130   69.2890   62.9100 O   0  0  0  0  0  0  0  0  0  0  0  0
    5.2400   69.4660   64.0640 C   0  0  0  0  0  0  0  0  0  0  0  0
    6.0680   69.9970   65.0200 N   0  0  0  0  0  0  0  0  0  0  0  0
    5.7720   70.2070   66.3440 C   0  0  0  0  0  0  0  0  0  0  0  0
    6.5990   70.6570   67.1280 O   0  0  0  0  0  0  0  0  0  0  0  0
    4.3990   69.8540   66.7740 C   0  0  0  0  0  0  0  0  0  0  0  0
    3.4910   69.3250   65.8420 C   0  0  0  0  0  0  0  0  0  0  0  0
    3.8700   69.1110   64.5040 C   0  0  0  0  0  0  0  0  0  0  0  0
    2.9810   68.5640   63.5740 C   0  0  0  0  0  0  0  0  0  0  0  0
    1.6980   68.2200   63.9740 C   0  0  0  0  0  0  0  0  0  0  0  0
    1.3030   68.4290   65.2980 C   0  0  0  0  0  0  0  0  0  0  0  0
    2.1770   68.9900   66.2600 C   0  0  0  0  0  0  0  0  0  0  0  0
    1.8030   69.2340   67.6120 C   0  0  0  0  0  0  0  0  0  0  0  0
    2.7530   69.7120   68.5240 C   0  0  0  0  0  0  0  0  0  0  0  0
    4.0390   70.0400   68.1100 C   0  0  0  0  0  0  0  0  0  0  0  0
    0.5600   68.8370   68.1470 N   0  0  0  0  0  0  0  0  0  0  0  0
    7.0129   70.2671   64.7115 H   0  0  0  0  0  0  0  0  0  0  0  0
    3.2968   68.4074   62.5320 H   0  0  0  0  0  0  0  0  0  0  0  0
    0.9933   67.7838   63.2507 H   0  0  0  0  0  0  0  0  0  0  0  0
    0.2833   68.1495   65.6015 H   0  0  0  0  0  0  0  0  0  0  0  0
    2.4775   69.8294   69.5825 H   0  0  0  0  0  0  0  0  0  0  0  0
    4.7671   70.4429   68.8294 H   0  0  0  0  0  0  0  0  0  0  0  0
    0.3360   69.0367   69.1323 H   0  0  0  0  0  0  0  0  0  0  0  0
   -0.1238   68.3473   67.5524 H   0  0  0  0  0  0  0  0  0  0  0  0
  2  1  2  0
  3  2  1  0
  4  3  1  0
  5  4  2  0
  6  4  1  0
  7  6  1  0
  8  7  2  0
  8  2  1  0
  9  8  1  0
 10  9  2  0
 11 10  1  0
 12  7  1  0
 12 11  2  0
 13 12  1  0
 14 13  2  0
 15 14  1  0
 15  6  2  0
 16 13  1  0
  3 17  1  0
  9 18  1  0
 10 19  1  0
 11 20  1  0
 14 21  1  0
 15 22  1  0
 16 23  1  0
 16 24  1  0
M  END
>  <score>  (6) 
-9.61

$$$$
=
     RDKit          3D

 24 26  0  0  0  0  0  0  0  0999 V2000
    3.4140   70.5880   69.8910 O   0  0  0  0  0  0  0  0  0  0  0  0
    3.8780   70.3580   68.7810 C   0  0  0  0  0  0  0  0  0  0  0  0
    5.1770   70.6650   68.4600 N   0  0  0  0  0  0  0  0  0  0  0  0
    5.7920   70.4860   67.2470 C   0  0  0  0  0  0  0  0  0  0  0  0
    6.9520   70.8280   67.0530 O   0  0  0  0  0  0  0  0  0  0  0  0
    4.9740   69.8610   66.1810 C   0  0  0  0  0  0  0  0  0  0  0  0
    3.6420   69.5010   66.4460 C   0  0  0  0  0  0  0  0  0  0  0  0
    3.0660   69.7380   67.7080 C   0  0  0  0  0  0  0  0  0  0  0  0
    1.7350   69.4040   67.9750 C   0  0  0  0  0  0  0  0  0  0  0  0
    0.9590   68.8310   66.9770 C   0  0  0  0  0  0  0  0  0  0  0  0
    1.5160   68.5850   65.7190 C   0  0  0  0  0  0  0  0  0  0  0  0
    2.8630   68.9020   65.4210 C   0  0  0  0  0  0  0  0  0  0  0  0
    3.4690   68.6490   64.1580 C   0  0  0  0  0  0  0  0  0  0  0  0
    4.7820   69.0720   63.9150 C   0  0  0  0  0  0  0  0  0  0  0  0
    5.5410   69.6570   64.9220 C   0  0  0  0  0  0  0  0  0  0  0  0
    2.7490   68.1590   63.0480 N   0  0  0  0  0  0  0  0  0  0  0  0
    5.7516   71.0737   69.2108 H   0  0  0  0  0  0  0  0  0  0  0  0
    1.3055   69.5941   68.9697 H   0  0  0  0  0  0  0  0  0  0  0  0
   -0.0913   68.5713   67.1756 H   0  0  0  0  0  0  0  0  0  0  0  0
    0.8890   68.1315   64.9372 H   0  0  0  0  0  0  0  0  0  0  0  0
    5.2183   68.9395   62.9140 H   0  0  0  0  0  0  0  0  0  0  0  0
    6.5813   69.9571   64.7280 H   0  0  0  0  0  0  0  0  0  0  0  0
    3.2322   67.9915   62.1539 H   0  0  0  0  0  0  0  0  0  0  0  0
    1.7402   67.9688   63.1317 H   0  0  0  0  0  0  0  0  0  0  0  0
  2  1  2  0
  3  2  1  0
  4  3  1  0
  5  4  2  0
  6  4  1  0
  7  6  1  0
  8  7  2  0
  8  2  1  0
  9  8  1  0
 10  9  2  0
 11 10  1  0
 12  7  1  0
 12 11  2  0
 13 12  1  0
 14 13  2  0
 15 14  1  0
 15  6  2  0
 16 13  1  0
  3 17  1  0
  9 18  1  0
 10 19  1  0
 11 20  1  0
 14 21  1  0
 15 22  1  0
 16 23  1  0
 16 24  1  0
M  END
>  <score>  (7) 
-9.515

$$$$
=
     RDKit          3D

 24 26  0  0  0  0  0  0  0  0999 V2000
    5.8630   68.3520   63.4310 O   0  0  0  0  0  0  0  0  0  0  0  0
    4.7240   68.5010   63.0070 C   0  0  0  0  0  0  0  0  0  0  0  0
    4.4630   68.6590   61.6680 N   0  0  0  0  0  0  0  0  0  0  0  0
    3.2390   68.8670   61.0860 C   0  0  0  0  0  0  0  0  0  0  0  0
    3.1170   69.0330   59.8780 O   0  0  0  0  0  0  0  0  0  0  0  0
    2.0710   68.8860   61.9970 C   0  0  0  0  0  0  0  0  0  0  0  0
    2.2620   68.7080   63.3780 C   0  0  0  0  0  0  0  0  0  0  0  0
    3.5510   68.5250   63.9120 C   0  0  0  0  0  0  0  0  0  0  0  0
    3.7540   68.3710   65.2860 C   0  0  0  0  0  0  0  0  0  0  0  0
    2.6660   68.4000   66.1470 C   0  0  0  0  0  0  0  0  0  0  0  0
    1.3780   68.5770   65.6340 C   0  0  0  0  0  0  0  0  0  0  0  0
    1.1400   68.7260   64.2460 C   0  0  0  0  0  0  0  0  0  0  0  0
   -0.1590   68.8890   63.6860 C   0  0  0  0  0  0  0  0  0  0  0  0
   -0.3040   69.1170   62.3120 C   0  0  0  0  0  0  0  0  0  0  0  0
    0.7980   69.0980   61.4650 C   0  0  0  0  0  0  0  0  0  0  0  0
   -1.3210   69.0270   64.4740 N   0  0  0  0  0  0  0  0  0  0  0  0
    5.2731   68.6168   61.0332 H   0  0  0  0  0  0  0  0  0  0  0  0
    4.7699   68.2277   65.6827 H   0  0  0  0  0  0  0  0  0  0  0  0
    2.8169   68.2840   67.2304 H   0  0  0  0  0  0  0  0  0  0  0  0
    0.5250   68.6013   66.3281 H   0  0  0  0  0  0  0  0  0  0  0  0
   -1.3036   69.3138   61.8973 H   0  0  0  0  0  0  0  0  0  0  0  0
    0.6678   69.2490   60.3832 H   0  0  0  0  0  0  0  0  0  0  0  0
   -2.2392   69.1426   64.0218 H   0  0  0  0  0  0  0  0  0  0  0  0
   -1.2512   69.0122   65.5015 H   0  0  0  0  0  0  0  0  0  0  0  0
  2  1  2  0
  3  2  1  0
  4  3  1  0
  5  4  2  0
  6  4  1  0
  7  6  1  0
  8  7  2  0
  8  2  1  0
  9  8  1  0
 10  9  2  0
 11 10  1  0
 12  7  1  0
 12 11  2  0
 13 12  1  0
 14 13  2  0
 15 14  1  0
 15  6  2  0
 16 13  1  0
  3 17  1  0
  9 18  1  0
 10 19  1  0
 11 20  1  0
 14 21  1  0
 15 22  1  0
 16 23  1  0
 16 24  1  0
M  END
>  <score>  (8) 
-8.635

$$$$
=
     RDKit          3D

 24 26  0  0  0  0  0  0  0  0999 V2000
    1.5780   68.3430   67.9640 O   0  0  0  0  0  0  0  0  0  0  0  0
    1.1600   68.4910   66.8220 C   0  0  0  0  0  0  0  0  0  0  0  0
   -0.1830   68.5410   66.5420 N   0  0  0  0  0  0  0  0  0  0  0  0
   -0.7640   68.6670   65.3050 C   0  0  0  0  0  0  0  0  0  0  0  0
   -1.9800   68.6660   65.1590 O   0  0  0  0  0  0  0  0  0  0  0  0
    0.1600   68.8000   64.1550 C   0  0  0  0  0  0  0  0  0  0  0  0
    1.5490   68.7790   64.3710 C   0  0  0  0  0  0  0  0  0  0  0  0
    2.0770   68.6200   65.6660 C   0  0  0  0  0  0  0  0  0  0  0  0
    3.4560   68.5750   65.8880 C   0  0  0  0  0  0  0  0  0  0  0  0
    4.3270   68.6860   64.8130 C   0  0  0  0  0  0  0  0  0  0  0  0
    3.8200   68.8480   63.5220 C   0  0  0  0  0  0  0  0  0  0  0  0
    2.4290   68.9070   63.2650 C   0  0  0  0  0  0  0  0  0  0  0  0
    1.8770   69.0910   61.9660 C   0  0  0  0  0  0  0  0  0  0  0  0
    0.4900   69.0520   61.7840 C   0  0  0  0  0  0  0  0  0  0  0  0
   -0.3700   68.9270   62.8700 C   0  0  0  0  0  0  0  0  0  0  0  0
    2.6660   69.1200   60.7960 N   0  0  0  0  0  0  0  0  0  0  0  0
   -0.8231   68.4771   67.3464 H   0  0  0  0  0  0  0  0  0  0  0  0
    3.8487   68.4524   66.9082 H   0  0  0  0  0  0  0  0  0  0  0  0
    5.4139   68.6465   64.9776 H   0  0  0  0  0  0  0  0  0  0  0  0
    4.5223   68.9323   62.6796 H   0  0  0  0  0  0  0  0  0  0  0  0
    0.0741   69.1212   60.7680 H   0  0  0  0  0  0  0  0  0  0  0  0
   -1.4594   68.9282   62.7174 H   0  0  0  0  0  0  0  0  0  0  0  0
    2.2202   69.2560   59.8775 H   0  0  0  0  0  0  0  0  0  0  0  0
    3.6875   69.0052   60.8607 H   0  0  0  0  0  0  0  0  0  0  0  0
  2  1  2  0
  3  2  1  0
  4  3  1  0
  5  4  2  0
  6  4  1  0
  7  6  1  0
  8  7  2  0
  8  2  1  0
  9  8  1  0
 10  9  2  0
 11 10  1  0
 12  7  1  0
 12 11  2  0
 13 12  1  0
 14 13  2  0
 15 14  1  0
 15  6  2  0
 16 13  1  0
  3 17  1  0
  9 18  1  0
 10 19  1  0
 11 20  1  0
 14 21  1  0
 15 22  1  0
 16 23  1  0
 16 24  1  0
M  END
>  <score>  (9) 
-8.619

$$$$
