=
     RDKit          3D

 30 31  0  0  0  0  0  0  0  0999 V2000
    1.9740   68.8350   66.8270 C   0  0  0  0  0  0  0  0  0  0  0  0
    0.9410   69.1030   67.4310 O   0  0  0  0  0  0  0  0  0  0  0  0
    5.6830   70.7240   67.9050 C   0  0  0  0  0  0  0  0  0  0  0  0
    5.5620   70.1020   66.6620 C   0  0  0  0  0  0  0  0  0  0  0  0
    4.3620   69.4780   66.2970 C   0  0  0  0  0  0  0  0  0  0  0  0
    3.2720   69.4700   67.1750 C   0  0  0  0  0  0  0  0  0  0  0  0
    3.3960   70.0940   68.4220 C   0  0  0  0  0  0  0  0  0  0  0  0
    4.5950   70.7160   68.7800 C   0  0  0  0  0  0  0  0  0  0  0  0
    7.4480   70.7810   69.4980 C   0  0  0  0  0  0  0  0  0  0  0  0
    6.7930   71.3660   68.3800 O   0  0  0  0  0  0  0  0  0  0  0  0
    1.9010   67.8610   65.6750 C   0  0  0  0  0  0  0  0  0  0  0  0
    2.1340   66.6790   65.8980 O   0  0  0  0  0  0  0  0  0  0  0  0
    1.5920   68.3560   64.3090 C   0  0  0  0  0  0  0  0  0  0  0  0
    2.5360   68.3330   63.2740 C   0  0  0  0  0  0  0  0  0  0  0  0
    2.1900   68.7940   62.0010 C   0  0  0  0  0  0  0  0  0  0  0  0
    0.9050   69.2780   61.7550 C   0  0  0  0  0  0  0  0  0  0  0  0
   -0.0380   69.3040   62.7800 C   0  0  0  0  0  0  0  0  0  0  0  0
    0.3030   68.8450   64.0530 C   0  0  0  0  0  0  0  0  0  0  0  0
    6.4131   70.1016   65.9651 H   0  0  0  0  0  0  0  0  0  0  0  0
    4.2759   68.9913   65.3143 H   0  0  0  0  0  0  0  0  0  0  0  0
    2.5474   70.0947   69.1219 H   0  0  0  0  0  0  0  0  0  0  0  0
    4.6826   71.2045   69.7617 H   0  0  0  0  0  0  0  0  0  0  0  0
    7.0087   71.1734   70.4270 H   0  0  0  0  0  0  0  0  0  0  0  0
    7.3228   69.6886   69.4660 H   0  0  0  0  0  0  0  0  0  0  0  0
    8.5194   71.0284   69.4660 H   0  0  0  0  0  0  0  0  0  0  0  0
    3.5503   67.9518   63.4636 H   0  0  0  0  0  0  0  0  0  0  0  0
    2.9333   68.7752   61.1903 H   0  0  0  0  0  0  0  0  0  0  0  0
    0.6363   69.6392   60.7514 H   0  0  0  0  0  0  0  0  0  0  0  0
   -1.0511   69.6862   62.5860 H   0  0  0  0  0  0  0  0  0  0  0  0
   -0.4438   68.8669   64.8603 H   0  0  0  0  0  0  0  0  0  0  0  0
  2  1  2  0
  4  3  2  0
  5  4  1  0
  6  5  2  0
  6  1  1  0
  7  6  1  0
  8  7  2  0
  8  3  1  0
 10  9  1  0
 10  3  1  0
 11  1  1  0
 12 11  2  0
 13 11  1  0
 14 13  2  0
 15 14  1  0
 16 15  2  0
 17 16  1  0
 18 17  2  0
 18 13  1  0
  4 19  1  0
  5 20  1  0
  7 21  1  0
  8 22  1  0
  9 23  1  0
  9 24  1  0
  9 25  1  0
 14 26  1  0
 15 27  1  0
 16 28  1  0
 17 29  1  0
 18 30  1  0
M  END
>  <score>  (1) 
-9.17

$$$$
=
     RDKit          3D

 30 31  0  0  0  0  0  0  0  0999 V2000
    2.5020   68.6960   65.3520 C   0  0  0  0  0  0  0  0  0  0  0  0
    2.4220   69.0930   64.1940 O   0  0  0  0  0  0  0  0  0  0  0  0
    5.1520   70.4870   68.2240 C   0  0  0  0  0  0  0  0  0  0  0  0
    5.6290   70.1670   66.9520 C   0  0  0  0  0  0  0  0  0  0  0  0
    4.7790   69.5790   66.0050 C   0  0  0  0  0  0  0  0  0  0  0  0
    3.4450   69.3040   66.3260 C   0  0  0  0  0  0  0  0  0  0  0  0
    2.9700   69.6240   67.6030 C   0  0  0  0  0  0  0  0  0  0  0  0
    3.8200   70.2120   68.5420 C   0  0  0  0  0  0  0  0  0  0  0  0
    7.2890   70.9450   69.1620 C   0  0  0  0  0  0  0  0  0  0  0  0
    5.8740   71.0620   69.2330 O   0  0  0  0  0  0  0  0  0  0  0  0
    1.6400   67.5280   65.7710 C   0  0  0  0  0  0  0  0  0  0  0  0
    2.1320   66.4050   65.7520 O   0  0  0  0  0  0  0  0  0  0  0  0
    0.2230   67.7570   66.1530 C   0  0  0  0  0  0  0  0  0  0  0  0
   -0.6000   68.6580   65.4650 C   0  0  0  0  0  0  0  0  0  0  0  0
   -1.9330   68.8230   65.8530 C   0  0  0  0  0  0  0  0  0  0  0  0
   -2.4480   68.0930   66.9240 C   0  0  0  0  0  0  0  0  0  0  0  0
   -1.6350   67.1960   67.6120 C   0  0  0  0  0  0  0  0  0  0  0  0
   -0.3030   67.0280   67.2290 C   0  0  0  0  0  0  0  0  0  0  0  0
    6.6768   70.3772   66.6914 H   0  0  0  0  0  0  0  0  0  0  0  0
    5.1627   69.3324   65.0040 H   0  0  0  0  0  0  0  0  0  0  0  0
    1.9237   69.4116   67.8679 H   0  0  0  0  0  0  0  0  0  0  0  0
    3.4366   70.4612   69.5425 H   0  0  0  0  0  0  0  0  0  0  0  0
    7.7056   70.9106   70.1795 H   0  0  0  0  0  0  0  0  0  0  0  0
    7.5541   70.0219   68.6258 H   0  0  0  0  0  0  0  0  0  0  0  0
    7.7022   71.8120   68.6258 H   0  0  0  0  0  0  0  0  0  0  0  0
   -0.1976   69.2355   64.6197 H   0  0  0  0  0  0  0  0  0  0  0  0
   -2.5778   69.5310   65.3117 H   0  0  0  0  0  0  0  0  0  0  0  0
   -3.4975   68.2260   67.2255 H   0  0  0  0  0  0  0  0  0  0  0  0
   -2.0418   66.6203   68.4564 H   0  0  0  0  0  0  0  0  0  0  0  0
    0.3376   66.3195   67.7746 H   0  0  0  0  0  0  0  0  0  0  0  0
  2  1  2  0
  4  3  2  0
  5  4  1  0
  6  5  2  0
  6  1  1  0
  7  6  1  0
  8  7  2  0
  8  3  1  0
 10  9  1  0
 10  3  1  0
 11  1  1  0
 12 11  2  0
 13 11  1  0
 14 13  2  0
 15 14  1  0
 16 15  2  0
 17 16  1  0
 18 17  2  0
 18 13  1  0
  4 19  1  0
  5 20  1  0
  7 21  1  0
  8 22  1  0
  9 23  1  0
  9 24  1  0
  9 25  1  0
 14 26  1  0
 15 27  1  0
 16 28  1  0
 17 29  1  0
 18 30  1  0
M  END
>  <score>  (2) 
-9.025

$$$$
=
     RDKit          3D

 30 31  0  0  0  0  0  0  0  0999 V2000
    2.3410   68.7940   66.4800 C   0  0  0  0  0  0  0  0  0  0  0  0
    1.3750   68.5430   67.1920 O   0  0  0  0  0  0  0  0  0  0  0  0
    5.7340   70.9160   68.0490 C   0  0  0  0  0  0  0  0  0  0  0  0
    5.8260   70.2930   66.8040 C   0  0  0  0  0  0  0  0  0  0  0  0
    4.7310   69.5930   66.2800 C   0  0  0  0  0  0  0  0  0  0  0  0
    3.5340   69.5100   67.0000 C   0  0  0  0  0  0  0  0  0  0  0  0
    3.4450   70.1350   68.2500 C   0  0  0  0  0  0  0  0  0  0  0  0
    4.5390   70.8320   68.7670 C   0  0  0  0  0  0  0  0  0  0  0  0
    7.6220   70.8960   69.4950 C   0  0  0  0  0  0  0  0  0  0  0  0
    6.7240   71.6270   68.6690 O   0  0  0  0  0  0  0  0  0  0  0  0
    2.2830   68.3920   65.0240 C   0  0  0  0  0  0  0  0  0  0  0  0
    1.6490   69.1010   64.2500 O   0  0  0  0  0  0  0  0  0  0  0  0
    2.9500   67.1420   64.5770 C   0  0  0  0  0  0  0  0  0  0  0  0
    2.6740   65.8980   65.1580 C   0  0  0  0  0  0  0  0  0  0  0  0
    3.3160   64.7490   64.6880 C   0  0  0  0  0  0  0  0  0  0  0  0
    4.2320   64.8360   63.6400 C   0  0  0  0  0  0  0  0  0  0  0  0
    4.5120   66.0700   63.0590 C   0  0  0  0  0  0  0  0  0  0  0  0
    3.8740   67.2210   63.5250 C   0  0  0  0  0  0  0  0  0  0  0  0
    6.7630   70.3516   66.2308 H   0  0  0  0  0  0  0  0  0  0  0  0
    4.8129   69.1060   65.2971 H   0  0  0  0  0  0  0  0  0  0  0  0
    2.5101   70.0767   68.8266 H   0  0  0  0  0  0  0  0  0  0  0  0
    4.4588   71.3198   69.7497 H   0  0  0  0  0  0  0  0  0  0  0  0
    7.3864   71.0878   70.5522 H   0  0  0  0  0  0  0  0  0  0  0  0
    7.5200   69.8209   69.2858 H   0  0  0  0  0  0  0  0  0  0  0  0
    8.6540   71.2140   69.2858 H   0  0  0  0  0  0  0  0  0  0  0  0
    1.9517   65.8252   65.9845 H   0  0  0  0  0  0  0  0  0  0  0  0
    3.0981   63.7730   65.1461 H   0  0  0  0  0  0  0  0  0  0  0  0
    4.7338   63.9289   63.2720 H   0  0  0  0  0  0  0  0  0  0  0  0
    5.2355   66.1379   62.2332 H   0  0  0  0  0  0  0  0  0  0  0  0
    4.0972   68.1948   63.0647 H   0  0  0  0  0  0  0  0  0  0  0  0
  2  1  2  0
  4  3  2  0
  5  4  1  0
  6  5  2  0
  6  1  1  0
  7  6  1  0
  8  7  2  0
  8  3  1  0
 10  9  1  0
 10  3  1  0
 11  1  1  0
 12 11  2  0
 13 11  1  0
 14 13  2  0
 15 14  1  0
 16 15  2  0
 17 16  1  0
 18 17  2  0
 18 13  1  0
  4 19  1  0
  5 20  1  0
  7 21  1  0
  8 22  1  0
  9 23  1  0
  9 24  1  0
  9 25  1  0
 14 26  1  0
 15 27  1  0
 16 28  1  0
 17 29  1  0
 18 30  1  0
M  END
>  <score>  (3) 
-8.902

$$$$
=
     RDKit          3D

 30 31  0  0  0  0  0  0  0  0999 V2000
    4.0960   68.1460   64.5510 C   0  0  0  0  0  0  0  0  0  0  0  0
    4.6090   67.0550   64.3250 O   0  0  0  0  0  0  0  0  0  0  0  0
   -0.1750   68.6250   64.6400 C   0  0  0  0  0  0  0  0  0  0  0  0
    0.5390   69.0120   63.5050 C   0  0  0  0  0  0  0  0  0  0  0  0
    1.9320   68.8670   63.4610 C   0  0  0  0  0  0  0  0  0  0  0  0
    2.6220   68.3340   64.5560 C   0  0  0  0  0  0  0  0  0  0  0  0
    1.9040   67.9470   65.6930 C   0  0  0  0  0  0  0  0  0  0  0  0
    0.5150   68.0920   65.7310 C   0  0  0  0  0  0  0  0  0  0  0  0
   -2.0240   68.5790   66.1340 C   0  0  0  0  0  0  0  0  0  0  0  0
   -1.5290   68.7120   64.8080 O   0  0  0  0  0  0  0  0  0  0  0  0
    5.0040   69.3300   64.7900 C   0  0  0  0  0  0  0  0  0  0  0  0
    5.5460   69.8510   63.8230 O   0  0  0  0  0  0  0  0  0  0  0  0
    5.2500   69.8030   66.1770 C   0  0  0  0  0  0  0  0  0  0  0  0
    6.5240   70.1760   66.6250 C   0  0  0  0  0  0  0  0  0  0  0  0
    6.6990   70.6320   67.9350 C   0  0  0  0  0  0  0  0  0  0  0  0
    5.6080   70.7180   68.7990 C   0  0  0  0  0  0  0  0  0  0  0  0
    4.3390   70.3480   68.3600 C   0  0  0  0  0  0  0  0  0  0  0  0
    4.1590   69.8910   67.0530 C   0  0  0  0  0  0  0  0  0  0  0  0
    0.0053   69.4331   62.6402 H   0  0  0  0  0  0  0  0  0  0  0  0
    2.4860   69.1735   62.5615 H   0  0  0  0  0  0  0  0  0  0  0  0
    2.4351   67.5271   66.5600 H   0  0  0  0  0  0  0  0  0  0  0  0
   -0.0405   67.7834   66.6289 H   0  0  0  0  0  0  0  0  0  0  0  0
   -1.2175   68.7957   66.8499 H   0  0  0  0  0  0  0  0  0  0  0  0
   -2.8518   69.2866   66.2890 H   0  0  0  0  0  0  0  0  0  0  0  0
   -2.3857   67.5518   66.2890 H   0  0  0  0  0  0  0  0  0  0  0  0
    7.3868   70.1101   65.9459 H   0  0  0  0  0  0  0  0  0  0  0  0
    7.7002   70.9237   68.2851 H   0  0  0  0  0  0  0  0  0  0  0  0
    5.7497   71.0785   69.8286 H   0  0  0  0  0  0  0  0  0  0  0  0
    3.4791   70.4158   69.0426 H   0  0  0  0  0  0  0  0  0  0  0  0
    3.1560   69.5985   66.7089 H   0  0  0  0  0  0  0  0  0  0  0  0
  2  1  2  0
  4  3  2  0
  5  4  1  0
  6  5  2  0
  6  1  1  0
  7  6  1  0
  8  7  2  0
  8  3  1  0
 10  9  1  0
 10  3  1  0
 11  1  1  0
 12 11  2  0
 13 11  1  0
 14 13  2  0
 15 14  1  0
 16 15  2  0
 17 16  1  0
 18 17  2  0
 18 13  1  0
  4 19  1  0
  5 20  1  0
  7 21  1  0
  8 22  1  0
  9 23  1  0
  9 24  1  0
  9 25  1  0
 14 26  1  0
 15 27  1  0
 16 28  1  0
 17 29  1  0
 18 30  1  0
M  END
>  <score>  (4) 
-8.762

$$$$
=
     RDKit          3D

 30 31  0  0  0  0  0  0  0  0999 V2000
    1.7620   68.0160   66.1630 C   0  0  0  0  0  0  0  0  0  0  0  0
    1.8250   66.8420   66.5080 O   0  0  0  0  0  0  0  0  0  0  0  0
    1.3120   69.1410   62.0380 C   0  0  0  0  0  0  0  0  0  0  0  0
    2.5520   68.7030   62.5010 C   0  0  0  0  0  0  0  0  0  0  0  0
    2.7180   68.3370   63.8440 C   0  0  0  0  0  0  0  0  0  0  0  0
    1.6410   68.4090   64.7340 C   0  0  0  0  0  0  0  0  0  0  0  0
    0.3970   68.8490   64.2670 C   0  0  0  0  0  0  0  0  0  0  0  0
    0.2370   69.2110   62.9280 C   0  0  0  0  0  0  0  0  0  0  0  0
   -0.2830   70.0430   60.5220 C   0  0  0  0  0  0  0  0  0  0  0  0
    1.0200   69.5240   60.7580 O   0  0  0  0  0  0  0  0  0  0  0  0
    1.8500   69.0840   67.2290 C   0  0  0  0  0  0  0  0  0  0  0  0
    0.8080   69.4970   67.7250 O   0  0  0  0  0  0  0  0  0  0  0  0
    3.1760   69.6310   67.6170 C   0  0  0  0  0  0  0  0  0  0  0  0
    4.2700   69.6290   66.7430 C   0  0  0  0  0  0  0  0  0  0  0  0
    5.4920   70.1720   67.1500 C   0  0  0  0  0  0  0  0  0  0  0  0
    5.6260   70.7180   68.4270 C   0  0  0  0  0  0  0  0  0  0  0  0
    4.5410   70.7220   69.3010 C   0  0  0  0  0  0  0  0  0  0  0  0
    3.3190   70.1810   68.8990 C   0  0  0  0  0  0  0  0  0  0  0  0
    3.4048   68.6443   61.8087 H   0  0  0  0  0  0  0  0  0  0  0  0
    3.6999   67.9915   64.1998 H   0  0  0  0  0  0  0  0  0  0  0  0
   -0.4574   68.9098   64.9572 H   0  0  0  0  0  0  0  0  0  0  0  0
   -0.7448   69.5546   62.5703 H   0  0  0  0  0  0  0  0  0  0  0  0
   -0.7788   70.2405   61.4839 H   0  0  0  0  0  0  0  0  0  0  0  0
   -0.2066   70.9794   59.9498 H   0  0  0  0  0  0  0  0  0  0  0  0
   -0.8713   69.3106   59.9498 H   0  0  0  0  0  0  0  0  0  0  0  0
    4.1677   69.1998   65.7354 H   0  0  0  0  0  0  0  0  0  0  0  0
    6.3502   70.1689   66.4618 H   0  0  0  0  0  0  0  0  0  0  0  0
    6.5887   71.1455   68.7439 H   0  0  0  0  0  0  0  0  0  0  0  0
    4.6476   71.1516   70.3080 H   0  0  0  0  0  0  0  0  0  0  0  0
    2.4640   70.1860   69.5910 H   0  0  0  0  0  0  0  0  0  0  0  0
  2  1  2  0
  4  3  2  0
  5  4  1  0
  6  5  2  0
  6  1  1  0
  7  6  1  0
  8  7  2  0
  8  3  1  0
 10  9  1  0
 10  3  1  0
 11  1  1  0
 12 11  2  0
 13 11  1  0
 14 13  2  0
 15 14  1  0
 16 15  2  0
 17 16  1  0
 18 17  2  0
 18 13  1  0
  4 19  1  0
  5 20  1  0
  7 21  1  0
  8 22  1  0
  9 23  1  0
  9 24  1  0
  9 25  1  0
 14 26  1  0
 15 27  1  0
 16 28  1  0
 17 29  1  0
 18 30  1  0
M  END
>  <score>  (5) 
-8.732

$$$$
=
     RDKit          3D

 30 31  0  0  0  0  0  0  0  0999 V2000
    1.5330   68.4210   64.5720 C   0  0  0  0  0  0  0  0  0  0  0  0
    0.7910   68.9740   63.7670 O   0  0  0  0  0  0  0  0  0  0  0  0
    4.3290   65.3550   63.4480 C   0  0  0  0  0  0  0  0  0  0  0  0
    4.3540   66.5850   62.7910 C   0  0  0  0  0  0  0  0  0  0  0  0
    3.4470   67.5950   63.1420 C   0  0  0  0  0  0  0  0  0  0  0  0
    2.5050   67.3780   64.1530 C   0  0  0  0  0  0  0  0  0  0  0  0
    2.4800   66.1420   64.8100 C   0  0  0  0  0  0  0  0  0  0  0  0
    3.3880   65.1410   64.4580 C   0  0  0  0  0  0  0  0  0  0  0  0
    4.8410   63.0690   63.8520 C   0  0  0  0  0  0  0  0  0  0  0  0
    5.1550   64.2940   63.2030 O   0  0  0  0  0  0  0  0  0  0  0  0
    1.4150   68.7940   66.0310 C   0  0  0  0  0  0  0  0  0  0  0  0
    0.3210   68.6840   66.5730 O   0  0  0  0  0  0  0  0  0  0  0  0
    2.6010   69.3180   66.7570 C   0  0  0  0  0  0  0  0  0  0  0  0
    3.8540   69.4470   66.1460 C   0  0  0  0  0  0  0  0  0  0  0  0
    4.9340   69.9630   66.8670 C   0  0  0  0  0  0  0  0  0  0  0  0
    4.7690   70.3520   68.1970 C   0  0  0  0  0  0  0  0  0  0  0  0
    3.5240   70.2260   68.8100 C   0  0  0  0  0  0  0  0  0  0  0  0
    2.4430   69.7110   68.0940 C   0  0  0  0  0  0  0  0  0  0  0  0
    5.0895   66.7638   61.9928 H   0  0  0  0  0  0  0  0  0  0  0  0
    3.4764   68.5627   62.6198 H   0  0  0  0  0  0  0  0  0  0  0  0
    1.7430   65.9588   65.6058 H   0  0  0  0  0  0  0  0  0  0  0  0
    3.3619   64.1739   64.9815 H   0  0  0  0  0  0  0  0  0  0  0  0
    4.8776   63.2117   64.9421 H   0  0  0  0  0  0  0  0  0  0  0  0
    3.8312   62.7467   63.5581 H   0  0  0  0  0  0  0  0  0  0  0  0
    5.5712   62.3006   63.5581 H   0  0  0  0  0  0  0  0  0  0  0  0
    3.9884   69.1420   65.0977 H   0  0  0  0  0  0  0  0  0  0  0  0
    5.9175   70.0629   66.3846 H   0  0  0  0  0  0  0  0  0  0  0  0
    5.6215   70.7580   68.7613 H   0  0  0  0  0  0  0  0  0  0  0  0
    3.3935   70.5326   69.8583 H   0  0  0  0  0  0  0  0  0  0  0  0
    1.4615   69.6127   68.5807 H   0  0  0  0  0  0  0  0  0  0  0  0
  2  1  2  0
  4  3  2  0
  5  4  1  0
  6  5  2  0
  6  1  1  0
  7  6  1  0
  8  7  2  0
  8  3  1  0
 10  9  1  0
 10  3  1  0
 11  1  1  0
 12 11  2  0
 13 11  1  0
 14 13  2  0
 15 14  1  0
 16 15  2  0
 17 16  1  0
 18 17  2  0
 18 13  1  0
  4 19  1  0
  5 20  1  0
  7 21  1  0
  8 22  1  0
  9 23  1  0
  9 24  1  0
  9 25  1  0
 14 26  1  0
 15 27  1  0
 16 28  1  0
 17 29  1  0
 18 30  1  0
M  END
>  <score>  (6) 
-8.668

$$$$
=
     RDKit          3D

 30 31  0  0  0  0  0  0  0  0999 V2000
    1.7070   68.0850   66.9450 C   0  0  0  0  0  0  0  0  0  0  0  0
    1.1360   67.1880   67.5570 O   0  0  0  0  0  0  0  0  0  0  0  0
    3.0980   67.5870   62.9080 C   0  0  0  0  0  0  0  0  0  0  0  0
    3.4470   66.6470   63.8780 C   0  0  0  0  0  0  0  0  0  0  0  0
    3.0060   66.7960   65.2000 C   0  0  0  0  0  0  0  0  0  0  0  0
    2.2120   67.8910   65.5610 C   0  0  0  0  0  0  0  0  0  0  0  0
    1.8640   68.8330   64.5860 C   0  0  0  0  0  0  0  0  0  0  0  0
    2.3050   68.6780   63.2700 C   0  0  0  0  0  0  0  0  0  0  0  0
    3.4050   68.7850   60.8770 C   0  0  0  0  0  0  0  0  0  0  0  0
    3.4610   67.5560   61.5900 O   0  0  0  0  0  0  0  0  0  0  0  0
    1.9290   69.4040   67.6470 C   0  0  0  0  0  0  0  0  0  0  0  0
    0.9510   70.0930   67.9120 O   0  0  0  0  0  0  0  0  0  0  0  0
    3.3120   69.8500   67.9580 C   0  0  0  0  0  0  0  0  0  0  0  0
    3.6830   70.3040   69.2300 C   0  0  0  0  0  0  0  0  0  0  0  0
    5.0020   70.6950   69.4760 C   0  0  0  0  0  0  0  0  0  0  0  0
    5.9530   70.6360   68.4570 C   0  0  0  0  0  0  0  0  0  0  0  0
    5.5900   70.1870   67.1900 C   0  0  0  0  0  0  0  0  0  0  0  0
    4.2740   69.7950   66.9390 C   0  0  0  0  0  0  0  0  0  0  0  0
    4.0717   65.7842   63.6038 H   0  0  0  0  0  0  0  0  0  0  0  0
    3.2851   66.0489   65.9576 H   0  0  0  0  0  0  0  0  0  0  0  0
    1.2412   69.6982   64.8572 H   0  0  0  0  0  0  0  0  0  0  0  0
    2.0248   69.4230   62.5107 H   0  0  0  0  0  0  0  0  0  0  0  0
    3.3669   69.6214   61.5904 H   0  0  0  0  0  0  0  0  0  0  0  0
    4.2996   68.8831   60.2445 H   0  0  0  0  0  0  0  0  0  0  0  0
    2.5052   68.8013   60.2445 H   0  0  0  0  0  0  0  0  0  0  0  0
    2.9358   70.3528   70.0358 H   0  0  0  0  0  0  0  0  0  0  0  0
    5.2912   71.0503   70.4761 H   0  0  0  0  0  0  0  0  0  0  0  0
    6.9902   70.9444   68.6546 H   0  0  0  0  0  0  0  0  0  0  0  0
    6.3402   70.1412   66.3869 H   0  0  0  0  0  0  0  0  0  0  0  0
    3.9901   69.4412   65.9369 H   0  0  0  0  0  0  0  0  0  0  0  0
  2  1  2  0
  4  3  2  0
  5  4  1  0
  6  5  2  0
  6  1  1  0
  7  6  1  0
  8  7  2  0
  8  3  1  0
 10  9  1  0
 10  3  1  0
 11  1  1  0
 12 11  2  0
 13 11  1  0
 14 13  2  0
 15 14  1  0
 16 15  2  0
 17 16  1  0
 18 17  2  0
 18 13  1  0
  4 19  1  0
  5 20  1  0
  7 21  1  0
  8 22  1  0
  9 23  1  0
  9 24  1  0
  9 25  1  0
 14 26  1  0
 15 27  1  0
 16 28  1  0
 17 29  1  0
 18 30  1  0
M  END
>  <score>  (7) 
-8.497

$$$$
=
     RDKit          3D

 30 31  0  0  0  0  0  0  0  0999 V2000
    2.2160   69.0990   67.7200 C   0  0  0  0  0  0  0  0  0  0  0  0
    2.4240   70.1490   68.3170 O   0  0  0  0  0  0  0  0  0  0  0  0
    4.3110   68.2090   64.0730 C   0  0  0  0  0  0  0  0  0  0  0  0
    3.1990   67.4470   64.4320 C   0  0  0  0  0  0  0  0  0  0  0  0
    2.5070   67.7210   65.6200 C   0  0  0  0  0  0  0  0  0  0  0  0
    2.9250   68.7600   66.4590 C   0  0  0  0  0  0  0  0  0  0  0  0
    4.0420   69.5220   66.0970 C   0  0  0  0  0  0  0  0  0  0  0  0
    4.7270   69.2460   64.9110 C   0  0  0  0  0  0  0  0  0  0  0  0
    5.6120   69.2220   62.3590 C   0  0  0  0  0  0  0  0  0  0  0  0
    5.0690   68.0470   62.9460 O   0  0  0  0  0  0  0  0  0  0  0  0
    1.1770   68.1520   68.2740 C   0  0  0  0  0  0  0  0  0  0  0  0
    1.5030   67.4010   69.1870 O   0  0  0  0  0  0  0  0  0  0  0  0
   -0.1850   68.1220   67.6810 C   0  0  0  0  0  0  0  0  0  0  0  0
   -0.6810   69.1690   66.8940 C   0  0  0  0  0  0  0  0  0  0  0  0
   -1.9630   69.0840   66.3440 C   0  0  0  0  0  0  0  0  0  0  0  0
   -2.7530   67.9580   66.5760 C   0  0  0  0  0  0  0  0  0  0  0  0
   -2.2650   66.9140   67.3580 C   0  0  0  0  0  0  0  0  0  0  0  0
   -0.9860   66.9940   67.9100 C   0  0  0  0  0  0  0  0  0  0  0  0
    2.8635   66.6272   63.7798 H   0  0  0  0  0  0  0  0  0  0  0  0
    1.6304   67.1158   65.8942 H   0  0  0  0  0  0  0  0  0  0  0  0
    4.3816   70.3408   66.7484 H   0  0  0  0  0  0  0  0  0  0  0  0
    5.6027   69.8515   64.6345 H   0  0  0  0  0  0  0  0  0  0  0  0
    5.9318   69.9139   63.1521 H   0  0  0  0  0  0  0  0  0  0  0  0
    6.4775   68.9540   61.7353 H   0  0  0  0  0  0  0  0  0  0  0  0
    4.8469   69.7075   61.7353 H   0  0  0  0  0  0  0  0  0  0  0  0
   -0.0612   70.0587   66.7087 H   0  0  0  0  0  0  0  0  0  0  0  0
   -2.3503   69.9076   65.7262 H   0  0  0  0  0  0  0  0  0  0  0  0
   -3.7615   67.8946   66.1413 H   0  0  0  0  0  0  0  0  0  0  0  0
   -2.8881   66.0260   67.5405 H   0  0  0  0  0  0  0  0  0  0  0  0
   -0.6041   66.1680   68.5280 H   0  0  0  0  0  0  0  0  0  0  0  0
  2  1  2  0
  4  3  2  0
  5  4  1  0
  6  5  2  0
  6  1  1  0
  7  6  1  0
  8  7  2  0
  8  3  1  0
 10  9  1  0
 10  3  1  0
 11  1  1  0
 12 11  2  0
 13 11  1  0
 14 13  2  0
 15 14  1  0
 16 15  2  0
 17 16  1  0
 18 17  2  0
 18 13  1  0
  4 19  1  0
  5 20  1  0
  7 21  1  0
  8 22  1  0
  9 23  1  0
  9 24  1  0
  9 25  1  0
 14 26  1  0
 15 27  1  0
 16 28  1  0
 17 29  1  0
 18 30  1  0
M  END
>  <score>  (8) 
-7.951

$$$$
=
     RDKit          3D

 30 31  0  0  0  0  0  0  0  0999 V2000
    2.4460   68.6010   64.2120 C   0  0  0  0  0  0  0  0  0  0  0  0
    2.4100   69.0660   63.0780 O   0  0  0  0  0  0  0  0  0  0  0  0
   -1.1680   67.9860   66.4570 C   0  0  0  0  0  0  0  0  0  0  0  0
   -0.0220   67.2630   66.7860 C   0  0  0  0  0  0  0  0  0  0  0  0
    1.1640   67.4470   66.0620 C   0  0  0  0  0  0  0  0  0  0  0  0
    1.2090   68.3580   65.0000 C   0  0  0  0  0  0  0  0  0  0  0  0
    0.0570   69.0820   64.6710 C   0  0  0  0  0  0  0  0  0  0  0  0
   -1.1210   68.8950   65.3980 C   0  0  0  0  0  0  0  0  0  0  0  0
   -3.5160   68.3540   66.3540 C   0  0  0  0  0  0  0  0  0  0  0  0
   -2.3820   67.9000   67.0820 O   0  0  0  0  0  0  0  0  0  0  0  0
    3.7960   68.3090   64.8270 C   0  0  0  0  0  0  0  0  0  0  0  0
    4.4180   67.3330   64.4250 O   0  0  0  0  0  0  0  0  0  0  0  0
    4.3120   69.1760   65.9170 C   0  0  0  0  0  0  0  0  0  0  0  0
    3.5440   69.5010   67.0420 C   0  0  0  0  0  0  0  0  0  0  0  0
    4.0840   70.3060   68.0490 C   0  0  0  0  0  0  0  0  0  0  0  0
    5.3880   70.7880   67.9380 C   0  0  0  0  0  0  0  0  0  0  0  0
    6.1570   70.4690   66.8220 C   0  0  0  0  0  0  0  0  0  0  0  0
    5.6230   69.6660   65.8130 C   0  0  0  0  0  0  0  0  0  0  0  0
   -0.0488   66.5443   67.6183 H   0  0  0  0  0  0  0  0  0  0  0  0
    2.0634   66.8730   66.3295 H   0  0  0  0  0  0  0  0  0  0  0  0
    0.0795   69.8000   63.8379 H   0  0  0  0  0  0  0  0  0  0  0  0
   -2.0209   69.4697   65.1336 H   0  0  0  0  0  0  0  0  0  0  0  0
   -4.3013   68.6684   67.0572 H   0  0  0  0  0  0  0  0  0  0  0  0
   -3.2281   69.2062   65.7208 H   0  0  0  0  0  0  0  0  0  0  0  0
   -3.8958   67.5386   65.7208 H   0  0  0  0  0  0  0  0  0  0  0  0
    2.5152   69.1226   67.1332 H   0  0  0  0  0  0  0  0  0  0  0  0
    3.4787   70.5601   68.9316 H   0  0  0  0  0  0  0  0  0  0  0  0
    5.8094   71.4208   68.7330 H   0  0  0  0  0  0  0  0  0  0  0  0
    7.1853   70.8498   66.7355 H   0  0  0  0  0  0  0  0  0  0  0  0
    6.2326   69.4160   64.9321 H   0  0  0  0  0  0  0  0  0  0  0  0
  2  1  2  0
  4  3  2  0
  5  4  1  0
  6  5  2  0
  6  1  1  0
  7  6  1  0
  8  7  2  0
  8  3  1  0
 10  9  1  0
 10  3  1  0
 11  1  1  0
 12 11  2  0
 13 11  1  0
 14 13  2  0
 15 14  1  0
 16 15  2  0
 17 16  1  0
 18 17  2  0
 18 13  1  0
  4 19  1  0
  5 20  1  0
  7 21  1  0
  8 22  1  0
  9 23  1  0
  9 24  1  0
  9 25  1  0
 14 26  1  0
 15 27  1  0
 16 28  1  0
 17 29  1  0
 18 30  1  0
M  END
>  <score>  (9) 
-7.752

$$$$
