=
     RDKit          3D

 20 21  0  0  0  0  0  0  0  0999 V2000
    1.3660   69.0110   63.9240 O   0  0  0  0  0  0  0  0  0  0  0  0
    2.2210   68.5040   64.6480 C   0  0  0  0  0  0  0  0  0  0  0  0
    3.0010   67.3600   64.1700 C   0  0  0  0  0  0  0  0  0  0  0  0
    3.8290   67.3840   63.0510 C   0  0  0  0  0  0  0  0  0  0  0  0
    4.4760   66.1380   62.7990 C   0  0  0  0  0  0  0  0  0  0  0  0
    4.1170   65.2070   63.7350 C   0  0  0  0  0  0  0  0  0  0  0  0
    3.0360   65.8050   64.8860 S   0  0  0  0  0  0  0  0  0  0  0  0
    4.7720   63.4130   63.7440 Br  0  0  0  0  0  0  0  0  0  0  0  0
    2.4480   69.1010   66.0600 C   0  0  0  0  0  0  0  0  0  0  0  0
    1.5060   69.1920   66.8400 O   0  0  0  0  0  0  0  0  0  0  0  0
    3.8030   69.5410   66.4160 C   0  0  0  0  0  0  0  0  0  0  0  0
    4.9740   69.6780   65.6840 C   0  0  0  0  0  0  0  0  0  0  0  0
    6.0750   70.1510   66.4660 C   0  0  0  0  0  0  0  0  0  0  0  0
    5.7050   70.3590   67.7670 C   0  0  0  0  0  0  0  0  0  0  0  0
    4.0830   70.0010   68.0640 S   0  0  0  0  0  0  0  0  0  0  0  0
    6.9030   70.9900   69.1150 Br  0  0  0  0  0  0  0  0  0  0  0  0
    3.9703   68.2760   62.4230 H   0  0  0  0  0  0  0  0  0  0  0  0
    5.1692   65.9511   61.9656 H   0  0  0  0  0  0  0  0  0  0  0  0
    5.0483   69.4464   64.6112 H   0  0  0  0  0  0  0  0  0  0  0  0
    7.0874   70.3249   66.0725 H   0  0  0  0  0  0  0  0  0  0  0  0
  2  1  2  0
  3  2  1  0
  4  3  2  0
  5  4  1  0
  6  5  2  0
  7  6  1  0
  7  3  1  0
  8  6  1  0
  9  2  1  0
 10  9  2  0
 11  9  1  0
 12 11  2  0
 13 12  1  0
 14 13  2  0
 15 11  1  0
 15 14  1  0
 16 14  1  0
  4 17  1  0
  5 18  1  0
 12 19  1  0
 13 20  1  0
M  END
>  <score>  (1) 
-7.568

$$$$
=
     RDKit          3D

 20 21  0  0  0  0  0  0  0  0999 V2000
    5.1910   69.7220   63.4260 O   0  0  0  0  0  0  0  0  0  0  0  0
    4.5030   69.3440   64.3720 C   0  0  0  0  0  0  0  0  0  0  0  0
    4.8710   69.7150   65.7410 C   0  0  0  0  0  0  0  0  0  0  0  0
    3.9810   69.7560   66.8110 C   0  0  0  0  0  0  0  0  0  0  0  0
    4.5910   70.1490   68.0390 C   0  0  0  0  0  0  0  0  0  0  0  0
    5.9260   70.3940   67.8610 C   0  0  0  0  0  0  0  0  0  0  0  0
    6.4380   70.1610   66.2690 S   0  0  0  0  0  0  0  0  0  0  0  0
    7.0950   70.9440   69.2680 Br  0  0  0  0  0  0  0  0  0  0  0  0
    3.2530   68.4750   64.0800 C   0  0  0  0  0  0  0  0  0  0  0  0
    2.2080   69.0130   63.7310 O   0  0  0  0  0  0  0  0  0  0  0  0
    3.3700   67.0200   64.2350 C   0  0  0  0  0  0  0  0  0  0  0  0
    2.6520   66.0880   64.9710 C   0  0  0  0  0  0  0  0  0  0  0  0
    3.1360   64.7500   64.8110 C   0  0  0  0  0  0  0  0  0  0  0  0
    4.2060   64.7090   63.9600 C   0  0  0  0  0  0  0  0  0  0  0  0
    4.6360   66.2260   63.3570 S   0  0  0  0  0  0  0  0  0  0  0  0
    5.1250   63.0990   63.4990 Br  0  0  0  0  0  0  0  0  0  0  0  0
    2.9129   69.5096   66.7184 H   0  0  0  0  0  0  0  0  0  0  0  0
    4.0609   70.2425   68.9983 H   0  0  0  0  0  0  0  0  0  0  0  0
    1.7977   66.3505   65.6123 H   0  0  0  0  0  0  0  0  0  0  0  0
    2.7034   63.8692   65.3081 H   0  0  0  0  0  0  0  0  0  0  0  0
  2  1  2  0
  3  2  1  0
  4  3  2  0
  5  4  1  0
  6  5  2  0
  7  6  1  0
  7  3  1  0
  8  6  1  0
  9  2  1  0
 10  9  2  0
 11  9  1  0
 12 11  2  0
 13 12  1  0
 14 13  2  0
 15 11  1  0
 15 14  1  0
 16 14  1  0
  4 17  1  0
  5 18  1  0
 12 19  1  0
 13 20  1  0
M  END
>  <score>  (2) 
-7.508

$$$$
=
     RDKit          3D

 20 21  0  0  0  0  0  0  0  0999 V2000
    1.8460   66.8330   66.0390 O   0  0  0  0  0  0  0  0  0  0  0  0
    1.9060   68.0160   65.7100 C   0  0  0  0  0  0  0  0  0  0  0  0
    1.6500   68.4040   64.3200 C   0  0  0  0  0  0  0  0  0  0  0  0
    2.5740   68.2800   63.2860 C   0  0  0  0  0  0  0  0  0  0  0  0
    2.0770   68.7300   62.0270 C   0  0  0  0  0  0  0  0  0  0  0  0
    0.7910   69.1820   62.1460 C   0  0  0  0  0  0  0  0  0  0  0  0
    0.1910   69.0710   63.7210 S   0  0  0  0  0  0  0  0  0  0  0  0
   -0.2270   69.8670   60.6830 Br  0  0  0  0  0  0  0  0  0  0  0  0
    2.2540   69.0710   66.7900 C   0  0  0  0  0  0  0  0  0  0  0  0
    1.3720   69.5040   67.5240 O   0  0  0  0  0  0  0  0  0  0  0  0
    3.6480   69.5190   66.8960 C   0  0  0  0  0  0  0  0  0  0  0  0
    4.7000   69.5550   65.9910 C   0  0  0  0  0  0  0  0  0  0  0  0
    5.9060   70.0860   66.5490 C   0  0  0  0  0  0  0  0  0  0  0  0
    5.7330   70.4360   67.8600 C   0  0  0  0  0  0  0  0  0  0  0  0
    4.1700   70.1440   68.4270 S   0  0  0  0  0  0  0  0  0  0  0  0
    7.1180   71.1820   68.9440 Br  0  0  0  0  0  0  0  0  0  0  0  0
    3.5871   67.8751   63.4261 H   0  0  0  0  0  0  0  0  0  0  0  0
    2.6498   68.7156   61.0880 H   0  0  0  0  0  0  0  0  0  0  0  0
    4.6151   69.2101   64.9499 H   0  0  0  0  0  0  0  0  0  0  0  0
    6.8499   70.1982   65.9954 H   0  0  0  0  0  0  0  0  0  0  0  0
  2  1  2  0
  3  2  1  0
  4  3  2  0
  5  4  1  0
  6  5  2  0
  7  6  1  0
  7  3  1  0
  8  6  1  0
  9  2  1  0
 10  9  2  0
 11  9  1  0
 12 11  2  0
 13 12  1  0
 14 13  2  0
 15 11  1  0
 15 14  1  0
 16 14  1  0
  4 17  1  0
  5 18  1  0
 12 19  1  0
 13 20  1  0
M  END
>  <score>  (3) 
-7.501

$$$$
=
     RDKit          3D

 20 21  0  0  0  0  0  0  0  0999 V2000
    2.5660   66.4500   65.6600 O   0  0  0  0  0  0  0  0  0  0  0  0
    2.1000   67.5860   65.7120 C   0  0  0  0  0  0  0  0  0  0  0  0
    0.6800   67.7830   66.0130 C   0  0  0  0  0  0  0  0  0  0  0  0
    0.0530   67.3350   67.1730 C   0  0  0  0  0  0  0  0  0  0  0  0
   -1.3370   67.6550   67.2240 C   0  0  0  0  0  0  0  0  0  0  0  0
   -1.7200   68.3340   66.1000 C   0  0  0  0  0  0  0  0  0  0  0  0
   -0.4530   68.5860   65.0110 S   0  0  0  0  0  0  0  0  0  0  0  0
   -3.5040   68.9400   65.7900 Br  0  0  0  0  0  0  0  0  0  0  0  0
    3.0430   68.7890   65.4520 C   0  0  0  0  0  0  0  0  0  0  0  0
    3.2270   69.1800   64.3050 O   0  0  0  0  0  0  0  0  0  0  0  0
    3.6900   69.4220   66.6080 C   0  0  0  0  0  0  0  0  0  0  0  0
    3.2260   69.8030   67.8590 C   0  0  0  0  0  0  0  0  0  0  0  0
    4.2370   70.3970   68.6790 C   0  0  0  0  0  0  0  0  0  0  0  0
    5.4380   70.4500   68.0240 C   0  0  0  0  0  0  0  0  0  0  0  0
    5.3750   69.8070   66.4640 S   0  0  0  0  0  0  0  0  0  0  0  0
    7.0280   71.1760   68.7950 Br  0  0  0  0  0  0  0  0  0  0  0  0
    0.5771   66.7886   67.9710 H   0  0  0  0  0  0  0  0  0  0  0  0
   -2.0088   67.3915   68.0542 H   0  0  0  0  0  0  0  0  0  0  0  0
    2.1856   69.6625   68.1873 H   0  0  0  0  0  0  0  0  0  0  0  0
    4.0708   70.7635   69.7028 H   0  0  0  0  0  0  0  0  0  0  0  0
  2  1  2  0
  3  2  1  0
  4  3  2  0
  5  4  1  0
  6  5  2  0
  7  6  1  0
  7  3  1  0
  8  6  1  0
  9  2  1  0
 10  9  2  0
 11  9  1  0
 12 11  2  0
 13 12  1  0
 14 13  2  0
 15 11  1  0
 15 14  1  0
 16 14  1  0
  4 17  1  0
  5 18  1  0
 12 19  1  0
 13 20  1  0
M  END
>  <score>  (4) 
-7.474

$$$$
=
     RDKit          3D

 20 21  0  0  0  0  0  0  0  0999 V2000
    5.0620   69.5170   63.4800 O   0  0  0  0  0  0  0  0  0  0  0  0
    4.5560   69.0510   64.4990 C   0  0  0  0  0  0  0  0  0  0  0  0
    4.9460   69.5670   65.8130 C   0  0  0  0  0  0  0  0  0  0  0  0
    4.0600   69.7960   66.8630 C   0  0  0  0  0  0  0  0  0  0  0  0
    4.6940   70.3020   68.0370 C   0  0  0  0  0  0  0  0  0  0  0  0
    6.0400   70.4410   67.8400 C   0  0  0  0  0  0  0  0  0  0  0  0
    6.5370   69.9790   66.2930 S   0  0  0  0  0  0  0  0  0  0  0  0
    7.2410   71.0900   69.1760 Br  0  0  0  0  0  0  0  0  0  0  0  0
    3.5080   67.9170   64.3560 C   0  0  0  0  0  0  0  0  0  0  0  0
    3.8790   66.7480   64.3250 O   0  0  0  0  0  0  0  0  0  0  0  0
    2.0920   68.2910   64.2630 C   0  0  0  0  0  0  0  0  0  0  0  0
    1.3060   68.7640   63.2210 C   0  0  0  0  0  0  0  0  0  0  0  0
   -0.0540   68.9980   63.6020 C   0  0  0  0  0  0  0  0  0  0  0  0
   -0.2580   68.6950   64.9210 C   0  0  0  0  0  0  0  0  0  0  0  0
    1.1340   68.1440   65.7010 S   0  0  0  0  0  0  0  0  0  0  0  0
   -1.9460   68.8780   65.7950 Br  0  0  0  0  0  0  0  0  0  0  0  0
    2.9788   69.6057   66.7941 H   0  0  0  0  0  0  0  0  0  0  0  0
    4.1710   70.5469   68.9732 H   0  0  0  0  0  0  0  0  0  0  0  0
    1.6894   68.9411   62.2053 H   0  0  0  0  0  0  0  0  0  0  0  0
   -0.8339   69.3727   62.9227 H   0  0  0  0  0  0  0  0  0  0  0  0
  2  1  2  0
  3  2  1  0
  4  3  2  0
  5  4  1  0
  6  5  2  0
  7  6  1  0
  7  3  1  0
  8  6  1  0
  9  2  1  0
 10  9  2  0
 11  9  1  0
 12 11  2  0
 13 12  1  0
 14 13  2  0
 15 11  1  0
 15 14  1  0
 16 14  1  0
  4 17  1  0
  5 18  1  0
 12 19  1  0
 13 20  1  0
M  END
>  <score>  (5) 
-7.244

$$$$
=
     RDKit          3D

 20 21  0  0  0  0  0  0  0  0999 V2000
    1.8950   66.8780   67.8450 O   0  0  0  0  0  0  0  0  0  0  0  0
    1.3060   67.9250   67.5830 C   0  0  0  0  0  0  0  0  0  0  0  0
   -0.1310   67.9060   67.2970 C   0  0  0  0  0  0  0  0  0  0  0  0
   -1.0340   67.0120   67.8660 C   0  0  0  0  0  0  0  0  0  0  0  0
   -2.3760   67.2040   67.4210 C   0  0  0  0  0  0  0  0  0  0  0  0
   -2.4470   68.2380   66.5270 C   0  0  0  0  0  0  0  0  0  0  0  0
   -0.9510   68.9620   66.2280 S   0  0  0  0  0  0  0  0  0  0  0  0
   -4.0720   68.8090   65.7010 Br  0  0  0  0  0  0  0  0  0  0  0  0
    2.1150   69.2470   67.5640 C   0  0  0  0  0  0  0  0  0  0  0  0
    1.7910   70.1680   68.3070 O   0  0  0  0  0  0  0  0  0  0  0  0
    3.2540   69.3480   66.6440 C   0  0  0  0  0  0  0  0  0  0  0  0
    4.5630   69.7810   66.8050 C   0  0  0  0  0  0  0  0  0  0  0  0
    5.3360   69.6990   65.6030 C   0  0  0  0  0  0  0  0  0  0  0  0
    4.5900   69.2050   64.5680 C   0  0  0  0  0  0  0  0  0  0  0  0
    3.0000   68.8450   65.0050 S   0  0  0  0  0  0  0  0  0  0  0  0
    5.2760   68.9500   62.8040 Br  0  0  0  0  0  0  0  0  0  0  0  0
   -0.7418   66.2346   68.5873 H   0  0  0  0  0  0  0  0  0  0  0  0
   -3.2361   66.6031   67.7513 H   0  0  0  0  0  0  0  0  0  0  0  0
    4.9656   70.1499   67.7599 H   0  0  0  0  0  0  0  0  0  0  0  0
    6.3924   69.9947   65.5220 H   0  0  0  0  0  0  0  0  0  0  0  0
  2  1  2  0
  3  2  1  0
  4  3  2  0
  5  4  1  0
  6  5  2  0
  7  6  1  0
  7  3  1  0
  8  6  1  0
  9  2  1  0
 10  9  2  0
 11  9  1  0
 12 11  2  0
 13 12  1  0
 14 13  2  0
 15 11  1  0
 15 14  1  0
 16 14  1  0
  4 17  1  0
  5 18  1  0
 12 19  1  0
 13 20  1  0
M  END
>  <score>  (6) 
-7.228

$$$$
=
     RDKit          3D

 20 21  0  0  0  0  0  0  0  0999 V2000
    5.7100   69.2780   63.2530 O   0  0  0  0  0  0  0  0  0  0  0  0
    4.9290   68.8940   64.1220 C   0  0  0  0  0  0  0  0  0  0  0  0
    5.0110   69.4460   65.4770 C   0  0  0  0  0  0  0  0  0  0  0  0
    6.1530   70.0250   66.0230 C   0  0  0  0  0  0  0  0  0  0  0  0
    5.9700   70.4850   67.3610 C   0  0  0  0  0  0  0  0  0  0  0  0
    4.6930   70.2380   67.7880 C   0  0  0  0  0  0  0  0  0  0  0  0
    3.7370   69.4790   66.6210 S   0  0  0  0  0  0  0  0  0  0  0  0
    4.0530   70.7060   69.5250 Br  0  0  0  0  0  0  0  0  0  0  0  0
    3.8700   67.8260   63.7490 C   0  0  0  0  0  0  0  0  0  0  0  0
    4.1580   66.6360   63.8160 O   0  0  0  0  0  0  0  0  0  0  0  0
    2.5420   68.2860   63.3230 C   0  0  0  0  0  0  0  0  0  0  0  0
    1.3090   68.3310   63.9590 C   0  0  0  0  0  0  0  0  0  0  0  0
    0.2710   68.8740   63.1370 C   0  0  0  0  0  0  0  0  0  0  0  0
    0.7480   69.2230   61.9030 C   0  0  0  0  0  0  0  0  0  0  0  0
    2.3970   68.9160   61.7150 S   0  0  0  0  0  0  0  0  0  0  0  0
   -0.3410   69.9820   60.5290 Br  0  0  0  0  0  0  0  0  0  0  0  0
    7.1031   70.1187   65.4766 H   0  0  0  0  0  0  0  0  0  0  0  0
    6.7486   70.9716   67.9668 H   0  0  0  0  0  0  0  0  0  0  0  0
    1.1463   67.9844   64.9902 H   0  0  0  0  0  0  0  0  0  0  0  0
   -0.7748   68.9951   63.4559 H   0  0  0  0  0  0  0  0  0  0  0  0
  2  1  2  0
  3  2  1  0
  4  3  2  0
  5  4  1  0
  6  5  2  0
  7  6  1  0
  7  3  1  0
  8  6  1  0
  9  2  1  0
 10  9  2  0
 11  9  1  0
 12 11  2  0
 13 12  1  0
 14 13  2  0
 15 11  1  0
 15 14  1  0
 16 14  1  0
  4 17  1  0
  5 18  1  0
 12 19  1  0
 13 20  1  0
M  END
>  <score>  (7) 
-6.867

$$$$
=
     RDKit          3D

 20 21  0  0  0  0  0  0  0  0999 V2000
    3.8270   58.8820   69.5600 O   0  0  0  0  0  0  0  0  0  0  0  0
    3.9100   59.3620   70.6880 C   0  0  0  0  0  0  0  0  0  0  0  0
    3.2650   58.6920   71.8200 C   0  0  0  0  0  0  0  0  0  0  0  0
    2.4240   57.5880   71.7050 C   0  0  0  0  0  0  0  0  0  0  0  0
    1.9240   57.1250   72.9580 C   0  0  0  0  0  0  0  0  0  0  0  0
    2.4030   57.8930   73.9850 C   0  0  0  0  0  0  0  0  0  0  0  0
    3.4230   59.1350   73.4660 S   0  0  0  0  0  0  0  0  0  0  0  0
    1.9650   57.5920   75.8200 Br  0  0  0  0  0  0  0  0  0  0  0  0
    4.7060   60.6790   70.8780 C   0  0  0  0  0  0  0  0  0  0  0  0
    5.9080   60.6340   71.1150 O   0  0  0  0  0  0  0  0  0  0  0  0
    3.9780   61.9490   70.7650 C   0  0  0  0  0  0  0  0  0  0  0  0
    4.3820   63.2480   70.4880 C   0  0  0  0  0  0  0  0  0  0  0  0
    3.3000   64.1850   70.4810 C   0  0  0  0  0  0  0  0  0  0  0  0
    2.1090   63.5690   70.7520 C   0  0  0  0  0  0  0  0  0  0  0  0
    2.2620   61.9080   71.0130 S   0  0  0  0  0  0  0  0  0  0  0  0
    0.4380   64.4920   70.8300 Br  0  0  0  0  0  0  0  0  0  0  0  0
    2.1703   57.1193   70.7427 H   0  0  0  0  0  0  0  0  0  0  0  0
    1.2460   56.2677   73.0822 H   0  0  0  0  0  0  0  0  0  0  0  0
    5.4277   63.5287   70.2936 H   0  0  0  0  0  0  0  0  0  0  0  0
    3.4117   65.2613   70.2833 H   0  0  0  0  0  0  0  0  0  0  0  0
  2  1  2  0
  3  2  1  0
  4  3  2  0
  5  4  1  0
  6  5  2  0
  7  6  1  0
  7  3  1  0
  8  6  1  0
  9  2  1  0
 10  9  2  0
 11  9  1  0
 12 11  2  0
 13 12  1  0
 14 13  2  0
 15 11  1  0
 15 14  1  0
 16 14  1  0
  4 17  1  0
  5 18  1  0
 12 19  1  0
 13 20  1  0
M  END
>  <score>  (8) 
-6.566

$$$$
=
     RDKit          3D

 20 21  0  0  0  0  0  0  0  0999 V2000
    5.7130   60.6080   71.0500 O   0  0  0  0  0  0  0  0  0  0  0  0
    4.4950   60.5680   70.8920 C   0  0  0  0  0  0  0  0  0  0  0  0
    3.7200   61.8100   70.8440 C   0  0  0  0  0  0  0  0  0  0  0  0
    4.2670   63.0700   70.6150 C   0  0  0  0  0  0  0  0  0  0  0  0
    3.2970   64.1160   70.6180 C   0  0  0  0  0  0  0  0  0  0  0  0
    2.0450   63.6170   70.8520 C   0  0  0  0  0  0  0  0  0  0  0  0
    2.0260   61.9410   71.0600 S   0  0  0  0  0  0  0  0  0  0  0  0
    0.4740   64.7000   70.9320 Br  0  0  0  0  0  0  0  0  0  0  0  0
    3.8110   59.1840   70.7460 C   0  0  0  0  0  0  0  0  0  0  0  0
    3.8030   58.6220   69.6560 O   0  0  0  0  0  0  0  0  0  0  0  0
    3.1880   58.5910   71.9360 C   0  0  0  0  0  0  0  0  0  0  0  0
    2.2310   57.6010   72.1080 C   0  0  0  0  0  0  0  0  0  0  0  0
    1.9240   57.3460   73.4820 C   0  0  0  0  0  0  0  0  0  0  0  0
    2.6580   58.1500   74.3110 C   0  0  0  0  0  0  0  0  0  0  0  0
    3.6940   59.1930   73.4820 S   0  0  0  0  0  0  0  0  0  0  0  0
    2.5250   58.1010   76.2160 Br  0  0  0  0  0  0  0  0  0  0  0  0
    5.3407   63.2417   70.4483 H   0  0  0  0  0  0  0  0  0  0  0  0
    3.5249   65.1796   70.4543 H   0  0  0  0  0  0  0  0  0  0  0  0
    1.7562   57.0661   71.2722 H   0  0  0  0  0  0  0  0  0  0  0  0
    1.1927   56.6003   73.8272 H   0  0  0  0  0  0  0  0  0  0  0  0
  2  1  2  0
  3  2  1  0
  4  3  2  0
  5  4  1  0
  6  5  2  0
  7  6  1  0
  7  3  1  0
  8  6  1  0
  9  2  1  0
 10  9  2  0
 11  9  1  0
 12 11  2  0
 13 12  1  0
 14 13  2  0
 15 11  1  0
 15 14  1  0
 16 14  1  0
  4 17  1  0
  5 18  1  0
 12 19  1  0
 13 20  1  0
M  END
>  <score>  (9) 
-6.485

$$$$
