=
     RDKit          3D

 29 31  0  0  0  0  0  0  0  0999 V2000
    2.1600   69.1960   67.5370 N   0  0  0  0  0  0  0  0  0  0  0  0
    2.8480   69.0000   66.3700 C   0  0  0  0  0  0  0  0  0  0  0  0
    2.4800   68.4470   65.3510 O   0  0  0  0  0  0  0  0  0  0  0  0
    4.1730   69.5850   66.5590 C   0  0  0  0  0  0  0  0  0  0  0  0
    4.2050   70.1420   67.8240 C   0  0  0  0  0  0  0  0  0  0  0  0
    2.8990   69.9140   68.4390 C   0  0  0  0  0  0  0  0  0  0  0  0
    2.5800   70.3270   69.5370 O   0  0  0  0  0  0  0  0  0  0  0  0
    5.3250   70.7880   68.3110 C   0  0  0  0  0  0  0  0  0  0  0  0
    6.4400   70.8540   67.4690 C   0  0  0  0  0  0  0  0  0  0  0  0
    6.4070   70.2850   66.1790 C   0  0  0  0  0  0  0  0  0  0  0  0
    5.2600   69.6400   65.7080 C   0  0  0  0  0  0  0  0  0  0  0  0
   -2.7000   66.6790   67.0930 O   0  0  0  0  0  0  0  0  0  0  0  0
   -1.6760   67.3390   67.2490 C   0  0  0  0  0  0  0  0  0  0  0  0
   -1.5300   68.7420   66.7070 C   0  0  0  0  0  0  0  0  0  0  0  0
   -0.0750   69.0730   66.4150 C   0  0  0  0  0  0  0  0  0  0  0  0
    0.7500   68.8730   67.6830 C   0  0  1  0  0  0  0  0  0  0  0  0
    0.6080   67.4320   68.1830 C   0  0  0  0  0  0  0  0  0  0  0  0
    1.4920   66.8250   68.7860 O   0  0  0  0  0  0  0  0  0  0  0  0
   -0.6220   66.8490   67.9790 N   0  0  0  0  0  0  0  0  0  0  0  0
    5.3392   71.2314   69.3176 H   0  0  0  0  0  0  0  0  0  0  0  0
    7.3545   71.3562   67.8175 H   0  0  0  0  0  0  0  0  0  0  0  0
    7.2962   70.3497   65.5347 H   0  0  0  0  0  0  0  0  0  0  0  0
    5.2243   69.1951   64.7026 H   0  0  0  0  0  0  0  0  0  0  0  0
   -2.1109   68.8290   65.7769 H   0  0  0  0  0  0  0  0  0  0  0  0
   -1.9011   69.4474   67.4651 H   0  0  0  0  0  0  0  0  0  0  0  0
    0.3014   68.4091   65.6228 H   0  0  0  0  0  0  0  0  0  0  0  0
    0.0064   70.1184   66.0826 H   0  0  0  0  0  0  0  0  0  0  0  0
    0.3423   69.5847   68.4160 H   0  0  0  0  0  0  0  0  0  0  0  0
   -0.7694   65.9341   68.4286 H   0  0  0  0  0  0  0  0  0  0  0  0
  2  1  1  0
  3  2  2  0
  4  2  1  0
  5  4  2  0
  6  5  1  0
  6  1  1  0
  7  6  2  0
  8  5  1  0
  9  8  2  0
 10  9  1  0
 11  4  1  0
 11 10  2  0
 13 12  2  0
 14 13  1  0
 15 14  1  0
 16 15  1  0
 16  1  1  0
 17 16  1  0
 18 17  2  0
 19 17  1  0
 19 13  1  0
  8 20  1  0
  9 21  1  0
 10 22  1  0
 11 23  1  0
 14 24  1  0
 14 25  1  0
 15 26  1  0
 15 27  1  0
 16 28  1  1
 19 29  1  0
M  END
>  <score>  (1) 
-10.114

$$$$
=
     RDKit          3D

 29 31  0  0  0  0  0  0  0  0999 V2000
    2.0320   69.4410   67.4360 N   0  0  0  0  0  0  0  0  0  0  0  0
    2.7720   70.0410   68.4190 C   0  0  0  0  0  0  0  0  0  0  0  0
    2.4140   70.4260   69.5160 O   0  0  0  0  0  0  0  0  0  0  0  0
    4.1350   70.1600   67.9070 C   0  0  0  0  0  0  0  0  0  0  0  0
    4.1580   69.5880   66.6490 C   0  0  0  0  0  0  0  0  0  0  0  0
    2.8100   69.1010   66.3620 C   0  0  0  0  0  0  0  0  0  0  0  0
    2.5030   68.4970   65.3520 O   0  0  0  0  0  0  0  0  0  0  0  0
    5.3120   69.5300   65.8930 C   0  0  0  0  0  0  0  0  0  0  0  0
    6.4690   70.0830   66.4510 C   0  0  0  0  0  0  0  0  0  0  0  0
    6.4450   70.6680   67.7340 C   0  0  0  0  0  0  0  0  0  0  0  0
    5.2640   70.7100   68.4810 C   0  0  0  0  0  0  0  0  0  0  0  0
   -2.6370   66.5580   67.2310 O   0  0  0  0  0  0  0  0  0  0  0  0
   -1.6610   67.2970   67.3310 C   0  0  0  0  0  0  0  0  0  0  0  0
   -1.6320   68.6800   66.7210 C   0  0  0  0  0  0  0  0  0  0  0  0
   -0.2120   69.1020   66.3770 C   0  0  0  0  0  0  0  0  0  0  0  0
    0.6530   69.0240   67.6320 C   0  0  1  0  0  0  0  0  0  0  0  0
    0.6290   67.6020   68.2020 C   0  0  0  0  0  0  0  0  0  0  0  0
    1.5690   67.0900   68.8090 O   0  0  0  0  0  0  0  0  0  0  0  0
   -0.5590   66.9210   68.0560 N   0  0  0  0  0  0  0  0  0  0  0  0
    5.3209   69.0685   64.8945 H   0  0  0  0  0  0  0  0  0  0  0  0
    7.4100   70.0614   65.8818 H   0  0  0  0  0  0  0  0  0  0  0  0
    7.3675   71.0968   68.1524 H   0  0  0  0  0  0  0  0  0  0  0  0
    5.2354   71.1620   69.4834 H   0  0  0  0  0  0  0  0  0  0  0  0
   -2.2381   68.6796   65.8031 H   0  0  0  0  0  0  0  0  0  0  0  0
   -2.0379   69.3919   67.4548 H   0  0  0  0  0  0  0  0  0  0  0  0
    0.1952   68.4300   65.6072 H   0  0  0  0  0  0  0  0  0  0  0  0
   -0.2155   70.1333   65.9943 H   0  0  0  0  0  0  0  0  0  0  0  0
    0.2096   69.7389   68.3407 H   0  0  0  0  0  0  0  0  0  0  0  0
   -0.6284   66.0204   68.5511 H   0  0  0  0  0  0  0  0  0  0  0  0
  2  1  1  0
  3  2  2  0
  4  2  1  0
  5  4  2  0
  6  5  1  0
  6  1  1  0
  7  6  2  0
  8  5  1  0
  9  8  2  0
 10  9  1  0
 11  4  1  0
 11 10  2  0
 13 12  2  0
 14 13  1  0
 15 14  1  0
 16 15  1  0
 16  1  1  0
 17 16  1  0
 18 17  2  0
 19 17  1  0
 19 13  1  0
  8 20  1  0
  9 21  1  0
 10 22  1  0
 11 23  1  0
 14 24  1  0
 14 25  1  0
 15 26  1  0
 15 27  1  0
 16 28  1  1
 19 29  1  0
M  END
>  <score>  (2) 
-10.066

$$$$
=
     RDKit          3D

 29 31  0  0  0  0  0  0  0  0999 V2000
    1.6990   68.6810   65.3340 N   0  0  0  0  0  0  0  0  0  0  0  0
    1.6280   68.3920   63.9980 C   0  0  0  0  0  0  0  0  0  0  0  0
    0.6780   67.9900   63.3530 O   0  0  0  0  0  0  0  0  0  0  0  0
    2.9540   68.6480   63.4410 C   0  0  0  0  0  0  0  0  0  0  0  0
    3.7520   69.1190   64.4670 C   0  0  0  0  0  0  0  0  0  0  0  0
    2.9330   69.1660   65.6760 C   0  0  0  0  0  0  0  0  0  0  0  0
    3.3220   69.5850   66.7490 O   0  0  0  0  0  0  0  0  0  0  0  0
    5.0730   69.4660   64.2660 C   0  0  0  0  0  0  0  0  0  0  0  0
    5.5820   69.3170   62.9710 C   0  0  0  0  0  0  0  0  0  0  0  0
    4.7680   68.8360   61.9250 C   0  0  0  0  0  0  0  0  0  0  0  0
    3.4320   68.4950   62.1540 C   0  0  0  0  0  0  0  0  0  0  0  0
   -2.9460   67.1850   67.8510 O   0  0  0  0  0  0  0  0  0  0  0  0
   -1.9230   67.6350   67.3430 C   0  0  0  0  0  0  0  0  0  0  0  0
   -1.9290   68.8770   66.4830 C   0  0  0  0  0  0  0  0  0  0  0  0
   -0.7960   68.8510   65.4680 C   0  0  0  0  0  0  0  0  0  0  0  0
    0.5320   68.6830   66.2010 C   0  0  1  0  0  0  0  0  0  0  0  0
    0.5160   67.3970   67.0330 C   0  0  0  0  0  0  0  0  0  0  0  0
    1.5150   66.7200   67.2700 O   0  0  0  0  0  0  0  0  0  0  0  0
   -0.7020   67.0560   67.5800 N   0  0  0  0  0  0  0  0  0  0  0  0
    5.6985   69.8434   65.0884 H   0  0  0  0  0  0  0  0  0  0  0  0
    6.6307   69.5785   62.7664 H   0  0  0  0  0  0  0  0  0  0  0  0
    5.1901   68.7276   60.9150 H   0  0  0  0  0  0  0  0  0  0  0  0
    2.7887   68.1208   61.3440 H   0  0  0  0  0  0  0  0  0  0  0  0
   -2.8882   68.9380   65.9480 H   0  0  0  0  0  0  0  0  0  0  0  0
   -1.7913   69.7520   67.1352 H   0  0  0  0  0  0  0  0  0  0  0  0
   -0.9425   68.0095   64.7749 H   0  0  0  0  0  0  0  0  0  0  0  0
   -0.7875   69.7930   64.9000 H   0  0  0  0  0  0  0  0  0  0  0  0
    0.6264   69.5682   66.8472 H   0  0  0  0  0  0  0  0  0  0  0  0
   -0.6948   66.2716   68.2475 H   0  0  0  0  0  0  0  0  0  0  0  0
  2  1  1  0
  3  2  2  0
  4  2  1  0
  5  4  2  0
  6  5  1  0
  6  1  1  0
  7  6  2  0
  8  5  1  0
  9  8  2  0
 10  9  1  0
 11  4  1  0
 11 10  2  0
 13 12  2  0
 14 13  1  0
 15 14  1  0
 16 15  1  0
 16  1  1  0
 17 16  1  0
 18 17  2  0
 19 17  1  0
 19 13  1  0
  8 20  1  0
  9 21  1  0
 10 22  1  0
 11 23  1  0
 14 24  1  0
 14 25  1  0
 15 26  1  0
 15 27  1  0
 16 28  1  1
 19 29  1  0
M  END
>  <score>  (3) 
-9.656

$$$$
=
     RDKit          3D

 29 31  0  0  0  0  0  0  0  0999 V2000
    1.7400   68.8940   65.2010 N   0  0  0  0  0  0  0  0  0  0  0  0
    3.0140   69.2530   65.5500 C   0  0  0  0  0  0  0  0  0  0  0  0
    3.4360   69.6120   66.6330 O   0  0  0  0  0  0  0  0  0  0  0  0
    3.8290   69.1410   64.3430 C   0  0  0  0  0  0  0  0  0  0  0  0
    3.0090   68.6790   63.3300 C   0  0  0  0  0  0  0  0  0  0  0  0
    1.6740   68.4940   63.8930 C   0  0  0  0  0  0  0  0  0  0  0  0
    0.7270   68.0470   63.2750 O   0  0  0  0  0  0  0  0  0  0  0  0
    3.4820   68.4550   62.0520 C   0  0  0  0  0  0  0  0  0  0  0  0
    4.8350   68.7190   61.8160 C   0  0  0  0  0  0  0  0  0  0  0  0
    5.6700   69.1920   62.8500 C   0  0  0  0  0  0  0  0  0  0  0  0
    5.1680   69.4070   64.1360 C   0  0  0  0  0  0  0  0  0  0  0  0
   -2.6660   67.0020   67.8770 O   0  0  0  0  0  0  0  0  0  0  0  0
   -1.6870   67.5280   67.3560 C   0  0  0  0  0  0  0  0  0  0  0  0
   -1.7400   68.9130   66.7520 C   0  0  0  0  0  0  0  0  0  0  0  0
   -0.7200   69.0670   65.6340 C   0  0  0  0  0  0  0  0  0  0  0  0
    0.6700   68.7450   66.1740 C   0  0  1  0  0  0  0  0  0  0  0  0
    0.6980   67.3230   66.7450 C   0  0  0  0  0  0  0  0  0  0  0  0
    1.6930   66.6010   66.7390 O   0  0  0  0  0  0  0  0  0  0  0  0
   -0.4670   66.8990   67.3460 N   0  0  0  0  0  0  0  0  0  0  0  0
    2.8224   68.0846   61.2534 H   0  0  0  0  0  0  0  0  0  0  0  0
    5.2532   68.5558   60.8118 H   0  0  0  0  0  0  0  0  0  0  0  0
    6.7308   69.3943   62.6409 H   0  0  0  0  0  0  0  0  0  0  0  0
    5.8122   69.7727   64.9492 H   0  0  0  0  0  0  0  0  0  0  0  0
   -2.7469   69.0884   66.3453 H   0  0  0  0  0  0  0  0  0  0  0  0
   -1.5058   69.6447   67.5393 H   0  0  0  0  0  0  0  0  0  0  0  0
   -0.9654   68.3755   64.8145 H   0  0  0  0  0  0  0  0  0  0  0  0
   -0.7392   70.1000   65.2565 H   0  0  0  0  0  0  0  0  0  0  0  0
    0.8600   69.4888   66.9618 H   0  0  0  0  0  0  0  0  0  0  0  0
   -0.4164   66.0014   67.8486 H   0  0  0  0  0  0  0  0  0  0  0  0
  2  1  1  0
  3  2  2  0
  4  2  1  0
  5  4  2  0
  6  5  1  0
  6  1  1  0
  7  6  2  0
  8  5  1  0
  9  8  2  0
 10  9  1  0
 11  4  1  0
 11 10  2  0
 13 12  2  0
 14 13  1  0
 15 14  1  0
 16 15  1  0
 16  1  1  0
 17 16  1  0
 18 17  2  0
 19 17  1  0
 19 13  1  0
  8 20  1  0
  9 21  1  0
 10 22  1  0
 11 23  1  0
 14 24  1  0
 14 25  1  0
 15 26  1  0
 15 27  1  0
 16 28  1  1
 19 29  1  0
M  END
>  <score>  (4) 
-9.525

$$$$
=
     RDKit          3D

 29 31  0  0  0  0  0  0  0  0999 V2000
    1.5960   68.3070   66.1760 N   0  0  0  0  0  0  0  0  0  0  0  0
    2.5320   67.9870   65.2290 C   0  0  0  0  0  0  0  0  0  0  0  0
    2.4180   67.2650   64.2570 O   0  0  0  0  0  0  0  0  0  0  0  0
    3.7620   68.6810   65.6020 C   0  0  0  0  0  0  0  0  0  0  0  0
    3.4940   69.4210   66.7380 C   0  0  0  0  0  0  0  0  0  0  0  0
    2.0930   69.2000   67.0880 C   0  0  0  0  0  0  0  0  0  0  0  0
    1.5240   69.7490   68.0110 O   0  0  0  0  0  0  0  0  0  0  0  0
    4.4560   70.2060   67.3440 C   0  0  0  0  0  0  0  0  0  0  0  0
    5.7270   70.2210   66.7610 C   0  0  0  0  0  0  0  0  0  0  0  0
    6.0010   69.4650   65.6020 C   0  0  0  0  0  0  0  0  0  0  0  0
    5.0080   68.6810   65.0060 C   0  0  0  0  0  0  0  0  0  0  0  0
   -3.8910   68.4860   66.0900 O   0  0  0  0  0  0  0  0  0  0  0  0
   -2.6750   68.3180   66.1040 C   0  0  0  0  0  0  0  0  0  0  0  0
   -1.9900   67.4650   67.1460 C   0  0  0  0  0  0  0  0  0  0  0  0
   -0.5620   67.9280   67.3880 C   0  0  0  0  0  0  0  0  0  0  0  0
    0.2000   67.9160   66.0660 C   0  0  1  0  0  0  0  0  0  0  0  0
   -0.5000   68.8180   65.0450 C   0  0  0  0  0  0  0  0  0  0  0  0
    0.0870   69.4340   64.1570 O   0  0  0  0  0  0  0  0  0  0  0  0
   -1.8750   68.8580   65.1280 N   0  0  0  0  0  0  0  0  0  0  0  0
    4.2318   70.7939   68.2463 H   0  0  0  0  0  0  0  0  0  0  0  0
    6.5238   70.8305   67.2122 H   0  0  0  0  0  0  0  0  0  0  0  0
    7.0085   69.4925   65.1614 H   0  0  0  0  0  0  0  0  0  0  0  0
    5.2107   68.0895   64.1010 H   0  0  0  0  0  0  0  0  0  0  0  0
   -2.5526   67.5307   68.0890 H   0  0  0  0  0  0  0  0  0  0  0  0
   -1.9613   66.4277   66.7811 H   0  0  0  0  0  0  0  0  0  0  0  0
   -0.5706   68.9485   67.7985 H   0  0  0  0  0  0  0  0  0  0  0  0
   -0.0708   67.2526   68.1039 H   0  0  0  0  0  0  0  0  0  0  0  0
    0.1954   66.8678   65.7325 H   0  0  0  0  0  0  0  0  0  0  0  0
   -2.3608   69.3525   64.3662 H   0  0  0  0  0  0  0  0  0  0  0  0
  2  1  1  0
  3  2  2  0
  4  2  1  0
  5  4  2  0
  6  5  1  0
  6  1  1  0
  7  6  2  0
  8  5  1  0
  9  8  2  0
 10  9  1  0
 11  4  1  0
 11 10  2  0
 13 12  2  0
 14 13  1  0
 15 14  1  0
 16 15  1  0
 16  1  1  0
 17 16  1  0
 18 17  2  0
 19 17  1  0
 19 13  1  0
  8 20  1  0
  9 21  1  0
 10 22  1  0
 11 23  1  0
 14 24  1  0
 14 25  1  0
 15 26  1  0
 15 27  1  0
 16 28  1  6
 19 29  1  0
M  END
>  <score>  (5) 
-9.271

$$$$
=
     RDKit          3D

 29 31  0  0  0  0  0  0  0  0999 V2000
    1.6730   68.6380   65.9890 N   0  0  0  0  0  0  0  0  0  0  0  0
    2.1720   69.3680   67.0350 C   0  0  0  0  0  0  0  0  0  0  0  0
    1.5840   69.8180   68.0000 O   0  0  0  0  0  0  0  0  0  0  0  0
    3.6010   69.5370   66.7860 C   0  0  0  0  0  0  0  0  0  0  0  0
    3.9020   68.8650   65.6160 C   0  0  0  0  0  0  0  0  0  0  0  0
    2.6650   68.2640   65.1220 C   0  0  0  0  0  0  0  0  0  0  0  0
    2.5960   67.5580   64.1350 O   0  0  0  0  0  0  0  0  0  0  0  0
    5.1850   68.8240   65.1060 C   0  0  0  0  0  0  0  0  0  0  0  0
    6.1780   69.5000   65.8220 C   0  0  0  0  0  0  0  0  0  0  0  0
    5.8710   70.1880   67.0140 C   0  0  0  0  0  0  0  0  0  0  0  0
    4.5640   70.2100   67.5120 C   0  0  0  0  0  0  0  0  0  0  0  0
   -3.8140   68.4400   66.0130 O   0  0  0  0  0  0  0  0  0  0  0  0
   -2.5890   68.3560   66.0170 C   0  0  0  0  0  0  0  0  0  0  0  0
   -1.8310   67.6680   67.1280 C   0  0  0  0  0  0  0  0  0  0  0  0
   -0.4340   68.2490   67.2850 C   0  0  0  0  0  0  0  0  0  0  0  0
    0.3060   68.1450   65.9540 C   0  0  1  0  0  0  0  0  0  0  0  0
   -0.4720   68.8830   64.8590 C   0  0  0  0  0  0  0  0  0  0  0  0
    0.0570   69.4360   63.8970 O   0  0  0  0  0  0  0  0  0  0  0  0
   -1.8440   68.8390   64.9700 N   0  0  0  0  0  0  0  0  0  0  0  0
    5.4158   68.2828   64.1765 H   0  0  0  0  0  0  0  0  0  0  0  0
    7.2132   69.4950   65.4501 H   0  0  0  0  0  0  0  0  0  0  0  0
    6.6690   70.7138   67.5588 H   0  0  0  0  0  0  0  0  0  0  0  0
    4.3138   70.7408   68.4424 H   0  0  0  0  0  0  0  0  0  0  0  0
   -2.3814   67.7980   68.0715 H   0  0  0  0  0  0  0  0  0  0  0  0
   -1.7375   66.6013   66.8763 H   0  0  0  0  0  0  0  0  0  0  0  0
   -0.5063   69.3051   67.5841 H   0  0  0  0  0  0  0  0  0  0  0  0
    0.1142   67.6892   68.0571 H   0  0  0  0  0  0  0  0  0  0  0  0
    0.3689   67.0690   65.7342 H   0  0  0  0  0  0  0  0  0  0  0  0
   -2.3752   69.2137   64.1711 H   0  0  0  0  0  0  0  0  0  0  0  0
  2  1  1  0
  3  2  2  0
  4  2  1  0
  5  4  2  0
  6  5  1  0
  6  1  1  0
  7  6  2  0
  8  5  1  0
  9  8  2  0
 10  9  1  0
 11  4  1  0
 11 10  2  0
 13 12  2  0
 14 13  1  0
 15 14  1  0
 16 15  1  0
 16  1  1  0
 17 16  1  0
 18 17  2  0
 19 17  1  0
 19 13  1  0
  8 20  1  0
  9 21  1  0
 10 22  1  0
 11 23  1  0
 14 24  1  0
 14 25  1  0
 15 26  1  0
 15 27  1  0
 16 28  1  6
 19 29  1  0
M  END
>  <score>  (6) 
-9.25

$$$$
=
     RDKit          3D

 29 31  0  0  0  0  0  0  0  0999 V2000
    1.4620   67.8760   64.6920 N   0  0  0  0  0  0  0  0  0  0  0  0
    1.2530   67.1990   65.8640 C   0  0  0  0  0  0  0  0  0  0  0  0
    2.0100   66.4610   66.4650 O   0  0  0  0  0  0  0  0  0  0  0  0
   -0.1070   67.5150   66.2950 C   0  0  0  0  0  0  0  0  0  0  0  0
   -0.6390   68.4020   65.3780 C   0  0  0  0  0  0  0  0  0  0  0  0
    0.3840   68.6540   64.3650 C   0  0  0  0  0  0  0  0  0  0  0  0
    0.2520   69.4330   63.4410 O   0  0  0  0  0  0  0  0  0  0  0  0
   -1.9180   68.9070   65.5050 C   0  0  0  0  0  0  0  0  0  0  0  0
   -2.6660   68.4780   66.6070 C   0  0  0  0  0  0  0  0  0  0  0  0
   -2.1240   67.5720   67.5410 C   0  0  0  0  0  0  0  0  0  0  0  0
   -0.8240   67.0790   67.3920 C   0  0  0  0  0  0  0  0  0  0  0  0
    5.8920   69.6810   61.9960 O   0  0  0  0  0  0  0  0  0  0  0  0
    4.9490   69.1580   62.5840 C   0  0  0  0  0  0  0  0  0  0  0  0
    4.0910   68.0920   61.9430 C   0  0  0  0  0  0  0  0  0  0  0  0
    2.6830   68.0980   62.5170 C   0  0  0  0  0  0  0  0  0  0  0  0
    2.7560   67.9230   64.0310 C   0  0  1  0  0  0  0  0  0  0  0  0
    3.6020   69.0410   64.6500 C   0  0  0  0  0  0  0  0  0  0  0  0
    3.4170   69.4960   65.7780 O   0  0  0  0  0  0  0  0  0  0  0  0
    4.6590   69.4820   63.8850 N   0  0  0  0  0  0  0  0  0  0  0  0
   -2.3308   69.6156   64.7718 H   0  0  0  0  0  0  0  0  0  0  0  0
   -3.6908   68.8528   66.7463 H   0  0  0  0  0  0  0  0  0  0  0  0
   -2.7320   67.2484   68.3987 H   0  0  0  0  0  0  0  0  0  0  0  0
   -0.3910   66.3743   68.1172 H   0  0  0  0  0  0  0  0  0  0  0  0
    4.0375   68.2781   60.8602 H   0  0  0  0  0  0  0  0  0  0  0  0
    4.5452   67.1111   62.1470 H   0  0  0  0  0  0  0  0  0  0  0  0
    2.1937   69.0544   62.2806 H   0  0  0  0  0  0  0  0  0  0  0  0
    2.1021   67.2735   62.0779 H   0  0  0  0  0  0  0  0  0  0  0  0
    3.2231   66.9403   64.1928 H   0  0  0  0  0  0  0  0  0  0  0  0
    5.3103   70.1337   64.3453 H   0  0  0  0  0  0  0  0  0  0  0  0
  2  1  1  0
  3  2  2  0
  4  2  1  0
  5  4  2  0
  6  5  1  0
  6  1  1  0
  7  6  2  0
  8  5  1  0
  9  8  2  0
 10  9  1  0
 11  4  1  0
 11 10  2  0
 13 12  2  0
 14 13  1  0
 15 14  1  0
 16 15  1  0
 16  1  1  0
 17 16  1  0
 18 17  2  0
 19 17  1  0
 19 13  1  0
  8 20  1  0
  9 21  1  0
 10 22  1  0
 11 23  1  0
 14 24  1  0
 14 25  1  0
 15 26  1  0
 15 27  1  0
 16 28  1  6
 19 29  1  0
M  END
>  <score>  (7) 
-8.261

$$$$
=
     RDKit          3D

 29 31  0  0  0  0  0  0  0  0999 V2000
    2.1690   59.5860   72.1590 N   0  0  0  0  0  0  0  0  0  0  0  0
    1.6950   60.8680   72.2360 C   0  0  0  0  0  0  0  0  0  0  0  0
    0.8940   61.3390   73.0210 O   0  0  0  0  0  0  0  0  0  0  0  0
    2.3340   61.6190   71.1580 C   0  0  0  0  0  0  0  0  0  0  0  0
    3.1950   60.7570   70.5050 C   0  0  0  0  0  0  0  0  0  0  0  0
    3.1070   59.4580   71.1700 C   0  0  0  0  0  0  0  0  0  0  0  0
    3.7800   58.4910   70.8700 O   0  0  0  0  0  0  0  0  0  0  0  0
    3.9640   61.1650   69.4330 C   0  0  0  0  0  0  0  0  0  0  0  0
    3.8350   62.4960   69.0250 C   0  0  0  0  0  0  0  0  0  0  0  0
    2.9550   63.3750   69.6900 C   0  0  0  0  0  0  0  0  0  0  0  0
    2.1900   62.9380   70.7760 C   0  0  0  0  0  0  0  0  0  0  0  0
    2.5560   55.1940   75.4320 O   0  0  0  0  0  0  0  0  0  0  0  0
    2.3480   56.1860   74.7390 C   0  0  0  0  0  0  0  0  0  0  0  0
    1.2320   56.2400   73.7220 C   0  0  0  0  0  0  0  0  0  0  0  0
    1.5680   57.1930   72.5840 C   0  0  0  0  0  0  0  0  0  0  0  0
    1.8680   58.5740   73.1590 C   0  0  1  0  0  0  0  0  0  0  0  0
    3.0260   58.4890   74.1580 C   0  0  0  0  0  0  0  0  0  0  0  0
    3.8290   59.4000   74.3580 O   0  0  0  0  0  0  0  0  0  0  0  0
    3.0910   57.3290   74.8980 N   0  0  0  0  0  0  0  0  0  0  0  0
    4.6488   60.4723   68.9219 H   0  0  0  0  0  0  0  0  0  0  0  0
    4.4278   62.8626   68.1740 H   0  0  0  0  0  0  0  0  0  0  0  0
    2.8693   64.4176   69.3500 H   0  0  0  0  0  0  0  0  0  0  0  0
    1.5029   63.6161   71.3034 H   0  0  0  0  0  0  0  0  0  0  0  0
    1.0728   55.2323   73.3106 H   0  0  0  0  0  0  0  0  0  0  0  0
    0.3226   56.6035   74.2228 H   0  0  0  0  0  0  0  0  0  0  0  0
    2.4492   56.8212   72.0407 H   0  0  0  0  0  0  0  0  0  0  0  0
    0.7154   57.2578   71.8919 H   0  0  0  0  0  0  0  0  0  0  0  0
    0.9412   58.8941   73.6576 H   0  0  0  0  0  0  0  0  0  0  0  0
    3.7805   57.3181   75.6631 H   0  0  0  0  0  0  0  0  0  0  0  0
  2  1  1  0
  3  2  2  0
  4  2  1  0
  5  4  2  0
  6  5  1  0
  6  1  1  0
  7  6  2  0
  8  5  1  0
  9  8  2  0
 10  9  1  0
 11  4  1  0
 11 10  2  0
 13 12  2  0
 14 13  1  0
 15 14  1  0
 16 15  1  0
 16  1  1  0
 17 16  1  0
 18 17  2  0
 19 17  1  0
 19 13  1  0
  8 20  1  0
  9 21  1  0
 10 22  1  0
 11 23  1  0
 14 24  1  0
 14 25  1  0
 15 26  1  0
 15 27  1  0
 16 28  1  1
 19 29  1  0
M  END
>  <score>  (8) 
-7.864

$$$$
=
     RDKit          3D

 29 31  0  0  0  0  0  0  0  0999 V2000
    2.4140   59.7330   72.4130 N   0  0  0  0  0  0  0  0  0  0  0  0
    3.1870   59.5240   71.3030 C   0  0  0  0  0  0  0  0  0  0  0  0
    3.7410   58.5040   70.9390 O   0  0  0  0  0  0  0  0  0  0  0  0
    3.2510   60.7980   70.5890 C   0  0  0  0  0  0  0  0  0  0  0  0
    2.4770   61.7050   71.2890 C   0  0  0  0  0  0  0  0  0  0  0  0
    1.9180   61.0090   72.4450 C   0  0  0  0  0  0  0  0  0  0  0  0
    1.1470   61.5130   73.2390 O   0  0  0  0  0  0  0  0  0  0  0  0
    2.3220   63.0110   70.8670 C   0  0  0  0  0  0  0  0  0  0  0  0
    2.9870   63.3870   69.6960 C   0  0  0  0  0  0  0  0  0  0  0  0
    3.7770   62.4610   68.9830 C   0  0  0  0  0  0  0  0  0  0  0  0
    3.9150   61.1440   69.4290 C   0  0  0  0  0  0  0  0  0  0  0  0
    2.3380   55.0130   75.2180 O   0  0  0  0  0  0  0  0  0  0  0  0
    2.2340   56.0860   74.6300 C   0  0  0  0  0  0  0  0  0  0  0  0
    1.1480   56.3450   73.6110 C   0  0  0  0  0  0  0  0  0  0  0  0
    1.5910   57.3740   72.5830 C   0  0  0  0  0  0  0  0  0  0  0  0
    2.0030   58.6560   73.3000 C   0  0  1  0  0  0  0  0  0  0  0  0
    3.1290   58.3640   74.2980 C   0  0  0  0  0  0  0  0  0  0  0  0
    4.0060   59.1720   74.5990 O   0  0  0  0  0  0  0  0  0  0  0  0
    3.0740   57.1330   74.9140 N   0  0  0  0  0  0  0  0  0  0  0  0
    1.7016   63.7251   71.4284 H   0  0  0  0  0  0  0  0  0  0  0  0
    2.8929   64.4186   69.3258 H   0  0  0  0  0  0  0  0  0  0  0  0
    4.2910   62.7798   68.0642 H   0  0  0  0  0  0  0  0  0  0  0  0
    4.5268   60.4137   68.8791 H   0  0  0  0  0  0  0  0  0  0  0  0
    0.9081   55.4034   73.0954 H   0  0  0  0  0  0  0  0  0  0  0  0
    0.2643   56.7363   74.1363 H   0  0  0  0  0  0  0  0  0  0  0  0
    2.4458   56.9803   72.0134 H   0  0  0  0  0  0  0  0  0  0  0  0
    0.7612   57.5874   71.8931 H   0  0  0  0  0  0  0  0  0  0  0  0
    1.0989   59.0074   73.8187 H   0  0  0  0  0  0  0  0  0  0  0  0
    3.7447   56.9801   75.6806 H   0  0  0  0  0  0  0  0  0  0  0  0
  2  1  1  0
  3  2  2  0
  4  2  1  0
  5  4  2  0
  6  5  1  0
  6  1  1  0
  7  6  2  0
  8  5  1  0
  9  8  2  0
 10  9  1  0
 11  4  1  0
 11 10  2  0
 13 12  2  0
 14 13  1  0
 15 14  1  0
 16 15  1  0
 16  1  1  0
 17 16  1  0
 18 17  2  0
 19 17  1  0
 19 13  1  0
  8 20  1  0
  9 21  1  0
 10 22  1  0
 11 23  1  0
 14 24  1  0
 14 25  1  0
 15 26  1  0
 15 27  1  0
 16 28  1  1
 19 29  1  0
M  END
>  <score>  (9) 
-7.68

$$$$
