=
     RDKit          3D

  9  8  0  0  0  0  0  0  0  0999 V2000
    7.1830   70.9880   69.1070 C   0  0  0  0  0  0  0  0  0  0  0  0
    5.8980   71.2580   68.3520 C   0  0  0  0  0  0  0  0  0  0  0  0
    5.7650   72.6500   68.1040 O   0  0  0  0  0  0  0  0  0  0  0  0
    6.9882   71.0289   70.1888 H   0  0  0  0  0  0  0  0  0  0  0  0
    7.5623   69.9905   68.8402 H   0  0  0  0  0  0  0  0  0  0  0  0
    7.9317   71.7484   68.8402 H   0  0  0  0  0  0  0  0  0  0  0  0
    5.9175   70.7174   67.3942 H   0  0  0  0  0  0  0  0  0  0  0  0
    5.0449   70.9152   68.9559 H   0  0  0  0  0  0  0  0  0  0  0  0
    5.7186   73.1357   68.9654 H   0  0  0  0  0  0  0  0  0  0  0  0
  2  1  1  0
  3  2  1  0
  1  4  1  0
  1  5  1  0
  1  6  1  0
  2  7  1  0
  2  8  1  0
  3  9  1  0
M  END
>  <score>  (1) 
-2.899

$$$$
=
     RDKit          3D

  9  8  0  0  0  0  0  0  0  0999 V2000
   19.0230   63.4930   65.6640 C   0  0  0  0  0  0  0  0  0  0  0  0
   17.9930   64.1860   66.5310 C   0  0  0  0  0  0  0  0  0  0  0  0
   18.6290   64.7960   67.6450 O   0  0  0  0  0  0  0  0  0  0  0  0
   19.7651   62.9937   66.3043 H   0  0  0  0  0  0  0  0  0  0  0  0
   18.5247   62.7457   65.0289 H   0  0  0  0  0  0  0  0  0  0  0  0
   19.5274   64.2361   65.0289 H   0  0  0  0  0  0  0  0  0  0  0  0
   17.4770   64.9562   65.9390 H   0  0  0  0  0  0  0  0  0  0  0  0
   17.2654   63.4439   66.8915 H   0  0  0  0  0  0  0  0  0  0  0  0
   18.2484   64.4310   68.4829 H   0  0  0  0  0  0  0  0  0  0  0  0
  2  1  1  0
  3  2  1  0
  1  4  1  0
  1  5  1  0
  1  6  1  0
  2  7  1  0
  2  8  1  0
  3  9  1  0
M  END
>  <score>  (2) 
-2.567

$$$$
=
     RDKit          3D

  9  8  0  0  0  0  0  0  0  0999 V2000
   13.9240   76.1900   64.3410 C   0  0  0  0  0  0  0  0  0  0  0  0
   14.3060   75.8420   65.7650 C   0  0  0  0  0  0  0  0  0  0  0  0
   13.4450   74.8300   66.2660 O   0  0  0  0  0  0  0  0  0  0  0  0
   13.1109   76.9308   64.3501 H   0  0  0  0  0  0  0  0  0  0  0  0
   14.7967   76.6099   63.8194 H   0  0  0  0  0  0  0  0  0  0  0  0
   13.5870   75.2820   63.8194 H   0  0  0  0  0  0  0  0  0  0  0  0
   15.3444   75.4796   65.7853 H   0  0  0  0  0  0  0  0  0  0  0  0
   14.2115   76.7398   66.3935 H   0  0  0  0  0  0  0  0  0  0  0  0
   13.4583   74.8456   67.2558 H   0  0  0  0  0  0  0  0  0  0  0  0
  2  1  1  0
  3  2  1  0
  1  4  1  0
  1  5  1  0
  1  6  1  0
  2  7  1  0
  2  8  1  0
  3  9  1  0
M  END
>  <score>  (3) 
-2.53

$$$$
=
     RDKit          3D

  9  8  0  0  0  0  0  0  0  0999 V2000
   14.2310   75.7360   65.2260 C   0  0  0  0  0  0  0  0  0  0  0  0
   13.5080   76.7310   64.3420 C   0  0  0  0  0  0  0  0  0  0  0  0
   14.0540   76.7020   63.0310 O   0  0  0  0  0  0  0  0  0  0  0  0
   14.0502   75.9848   66.2821 H   0  0  0  0  0  0  0  0  0  0  0  0
   13.8573   74.7223   65.0189 H   0  0  0  0  0  0  0  0  0  0  0  0
   15.3105   75.7783   65.0189 H   0  0  0  0  0  0  0  0  0  0  0  0
   12.4402   76.4705   64.2978 H   0  0  0  0  0  0  0  0  0  0  0  0
   13.6284   77.7408   64.7612 H   0  0  0  0  0  0  0  0  0  0  0  0
   15.0411   76.6496   63.0857 H   0  0  0  0  0  0  0  0  0  0  0  0
  2  1  1  0
  3  2  1  0
  1  4  1  0
  1  5  1  0
  1  6  1  0
  2  7  1  0
  2  8  1  0
  3  9  1  0
M  END
>  <score>  (4) 
-2.513

$$$$
=
     RDKit          3D

  9  8  0  0  0  0  0  0  0  0999 V2000
    3.8290   63.8340   65.1410 C   0  0  0  0  0  0  0  0  0  0  0  0
    4.5630   64.3180   63.9080 C   0  0  0  0  0  0  0  0  0  0  0  0
    4.8520   63.2210   63.0540 O   0  0  0  0  0  0  0  0  0  0  0  0
    4.3562   64.1817   66.0417 H   0  0  0  0  0  0  0  0  0  0  0  0
    2.8044   64.2342   65.1385 H   0  0  0  0  0  0  0  0  0  0  0  0
    3.7932   62.7346   65.1385 H   0  0  0  0  0  0  0  0  0  0  0  0
    3.9338   65.0426   63.3703 H   0  0  0  0  0  0  0  0  0  0  0  0
    5.5053   64.7967   64.2129 H   0  0  0  0  0  0  0  0  0  0  0  0
    5.0622   62.4232   63.6012 H   0  0  0  0  0  0  0  0  0  0  0  0
  2  1  1  0
  3  2  1  0
  1  4  1  0
  1  5  1  0
  1  6  1  0
  2  7  1  0
  2  8  1  0
  3  9  1  0
M  END
>  <score>  (5) 
-2.375

$$$$
=
     RDKit          3D

  9  8  0  0  0  0  0  0  0  0999 V2000
   14.6190   52.3180   60.7550 C   0  0  0  0  0  0  0  0  0  0  0  0
   16.0730   52.6880   60.9600 C   0  0  0  0  0  0  0  0  0  0  0  0
   16.2800   53.1180   62.2980 O   0  0  0  0  0  0  0  0  0  0  0  0
   14.1309   52.1938   61.7329 H   0  0  0  0  0  0  0  0  0  0  0  0
   14.1135   53.1161   60.1916 H   0  0  0  0  0  0  0  0  0  0  0  0
   14.5565   51.3753   60.1916 H   0  0  0  0  0  0  0  0  0  0  0  0
   16.7044   51.8104   60.7574 H   0  0  0  0  0  0  0  0  0  0  0  0
   16.3385   53.5047   60.2727 H   0  0  0  0  0  0  0  0  0  0  0  0
   15.9468   52.4258   62.9224 H   0  0  0  0  0  0  0  0  0  0  0  0
  2  1  1  0
  3  2  1  0
  1  4  1  0
  1  5  1  0
  1  6  1  0
  2  7  1  0
  2  8  1  0
  3  9  1  0
M  END
>  <score>  (6) 
-2.315

$$$$
=
     RDKit          3D

  9  8  0  0  0  0  0  0  0  0999 V2000
   -1.4430   68.8130   66.1420 C   0  0  0  0  0  0  0  0  0  0  0  0
   -2.0130   67.6940   66.9890 C   0  0  0  0  0  0  0  0  0  0  0  0
   -3.3030   68.0520   67.4610 O   0  0  0  0  0  0  0  0  0  0  0  0
   -1.0418   69.6006   66.7968 H   0  0  0  0  0  0  0  0  0  0  0  0
   -0.6363   68.4178   65.5071 H   0  0  0  0  0  0  0  0  0  0  0  0
   -2.2369   69.2332   65.5071 H   0  0  0  0  0  0  0  0  0  0  0  0
   -2.0878   66.7796   66.3822 H   0  0  0  0  0  0  0  0  0  0  0  0
   -1.3497   67.5177   67.8487 H   0  0  0  0  0  0  0  0  0  0  0  0
   -3.3038   68.0522   68.4510 H   0  0  0  0  0  0  0  0  0  0  0  0
  2  1  1  0
  3  2  1  0
  1  4  1  0
  1  5  1  0
  1  6  1  0
  2  7  1  0
  2  8  1  0
  3  9  1  0
M  END
>  <score>  (7) 
-2.308

$$$$
=
     RDKit          3D

  9  8  0  0  0  0  0  0  0  0999 V2000
    3.5170   60.9960   69.5270 C   0  0  0  0  0  0  0  0  0  0  0  0
    3.4710   59.6680   70.2560 C   0  0  0  0  0  0  0  0  0  0  0  0
    3.7810   58.6120   69.3580 O   0  0  0  0  0  0  0  0  0  0  0  0
    3.5454   61.8158   70.2599 H   0  0  0  0  0  0  0  0  0  0  0  0
    4.4171   61.0369   68.8960 H   0  0  0  0  0  0  0  0  0  0  0  0
    2.6219   61.0991   68.8960 H   0  0  0  0  0  0  0  0  0  0  0  0
    4.2043   59.6765   71.0759 H   0  0  0  0  0  0  0  0  0  0  0  0
    2.4605   59.5129   70.6621 H   0  0  0  0  0  0  0  0  0  0  0  0
    4.0192   57.8005   69.8726 H   0  0  0  0  0  0  0  0  0  0  0  0
  2  1  1  0
  3  2  1  0
  1  4  1  0
  1  5  1  0
  1  6  1  0
  2  7  1  0
  2  8  1  0
  3  9  1  0
M  END
>  <score>  (8) 
-2.3

$$$$
=
     RDKit          3D

  9  8  0  0  0  0  0  0  0  0999 V2000
    6.5210   70.4940   67.6140 C   0  0  0  0  0  0  0  0  0  0  0  0
    5.4620   69.8910   66.7140 C   0  0  0  0  0  0  0  0  0  0  0  0
    6.0730   69.2870   65.5830 O   0  0  0  0  0  0  0  0  0  0  0  0
    6.2419   70.3351   68.6661 H   0  0  0  0  0  0  0  0  0  0  0  0
    7.4894   70.0119   67.4147 H   0  0  0  0  0  0  0  0  0  0  0  0
    6.6006   71.5729   67.4147 H   0  0  0  0  0  0  0  0  0  0  0  0
    4.8985   69.1299   67.2736 H   0  0  0  0  0  0  0  0  0  0  0  0
    4.7805   70.6853   66.3754 H   0  0  0  0  0  0  0  0  0  0  0  0
    6.7435   68.6241   65.8848 H   0  0  0  0  0  0  0  0  0  0  0  0
  2  1  1  0
  3  2  1  0
  1  4  1  0
  1  5  1  0
  1  6  1  0
  2  7  1  0
  2  8  1  0
  3  9  1  0
M  END
>  <score>  (9) 
-2.207

$$$$
