=
     RDKit          3D

 33 35  0  0  0  0  0  0  0  0999 V2000
    2.3810   69.1030   66.8720 C   0  0  0  0  0  0  0  0  0  0  0  0
    2.3000   67.9270   66.1190 N   0  0  0  0  0  0  0  0  0  0  0  0
    1.1270   67.2650   65.7800 C   0  0  0  0  0  0  0  0  0  0  0  0
    1.1190   66.2410   65.1060 O   0  0  0  0  0  0  0  0  0  0  0  0
   -0.0290   67.9310   66.3110 C   0  0  0  0  0  0  0  0  0  0  0  0
    0.1630   69.0770   67.0410 C   0  0  0  0  0  0  0  0  0  0  0  0
    1.3210   69.7040   67.3530 N   0  0  0  0  0  0  0  0  0  0  0  0
   -1.0990   69.4500   67.3890 N   0  0  0  0  0  0  0  0  0  0  0  0
   -2.0130   68.5830   66.9000 N   0  0  0  0  0  0  0  0  0  0  0  0
   -1.3550   67.6370   66.2290 N   0  0  0  0  0  0  0  0  0  0  0  0
    4.8040   69.6590   66.1780 C   0  0  0  0  0  0  0  0  0  0  0  0
    6.0510   70.1900   66.5380 C   0  0  0  0  0  0  0  0  0  0  0  0
    6.2600   70.7310   67.8080 C   0  0  0  0  0  0  0  0  0  0  0  0
    5.2300   70.7470   68.7390 C   0  0  0  0  0  0  0  0  0  0  0  0
    3.9880   70.2130   68.4010 C   0  0  0  0  0  0  0  0  0  0  0  0
    3.7560   69.6610   67.1270 C   0  0  0  0  0  0  0  0  0  0  0  0
    4.5390   69.1190   64.9450 O   0  0  0  0  0  0  0  0  0  0  0  0
    5.3240   69.4950   63.8100 C   0  0  0  0  0  0  0  0  0  0  0  0
    3.2120   68.6360   62.7050 C   0  0  0  0  0  0  0  0  0  0  0  0
    4.6600   69.0640   62.5030 C   0  0  0  0  0  0  0  0  0  0  0  0
    3.1851   67.5173   65.7879 H   0  0  0  0  0  0  0  0  0  0  0  0
   -1.3271   70.2827   67.9506 H   0  0  0  0  0  0  0  0  0  0  0  0
    6.8756   70.1801   65.8100 H   0  0  0  0  0  0  0  0  0  0  0  0
    7.2440   71.1460   68.0719 H   0  0  0  0  0  0  0  0  0  0  0  0
    5.3934   71.1786   69.7375 H   0  0  0  0  0  0  0  0  0  0  0  0
    3.1753   70.2230   69.1422 H   0  0  0  0  0  0  0  0  0  0  0  0
    5.4456   70.5882   63.8057 H   0  0  0  0  0  0  0  0  0  0  0  0
    6.3000   68.9930   63.8835 H   0  0  0  0  0  0  0  0  0  0  0  0
    2.9954   68.5720   63.7816 H   0  0  0  0  0  0  0  0  0  0  0  0
    2.5430   69.3748   62.2397 H   0  0  0  0  0  0  0  0  0  0  0  0
    3.0521   67.6522   62.2397 H   0  0  0  0  0  0  0  0  0  0  0  0
    5.2235   68.2184   62.0818 H   0  0  0  0  0  0  0  0  0  0  0  0
    4.6641   69.9279   61.8221 H   0  0  0  0  0  0  0  0  0  0  0  0
  2  1  1  0
  3  2  1  0
  4  3  2  0
  5  3  1  0
  6  5  2  0
  7  6  1  0
  7  1  2  0
  8  6  1  0
  9  8  1  0
 10  9  2  0
 10  5  1  0
 12 11  2  0
 13 12  1  0
 14 13  2  0
 15 14  1  0
 16 15  2  0
 16 11  1  0
 16  1  1  0
 17 11  1  0
 18 17  1  0
 20 19  1  0
 20 18  1  0
  2 21  1  0
  8 22  1  0
 12 23  1  0
 13 24  1  0
 14 25  1  0
 15 26  1  0
 18 27  1  0
 18 28  1  0
 19 29  1  0
 19 30  1  0
 19 31  1  0
 20 32  1  0
 20 33  1  0
M  END
>  <score>  (1) 
-9.544

$$$$
=
     RDKit          3D

 33 35  0  0  0  0  0  0  0  0999 V2000
    1.7200   68.5370   64.9590 C   0  0  0  0  0  0  0  0  0  0  0  0
    1.8350   67.8790   66.1880 N   0  0  0  0  0  0  0  0  0  0  0  0
    0.7810   67.5580   67.0340 C   0  0  0  0  0  0  0  0  0  0  0  0
    0.9450   66.9690   68.0960 O   0  0  0  0  0  0  0  0  0  0  0  0
   -0.4780   67.9960   66.5000 C   0  0  0  0  0  0  0  0  0  0  0  0
   -0.4780   68.6370   65.2860 C   0  0  0  0  0  0  0  0  0  0  0  0
    0.5670   68.9330   64.4790 N   0  0  0  0  0  0  0  0  0  0  0  0
   -1.7930   68.9130   65.0710 N   0  0  0  0  0  0  0  0  0  0  0  0
   -2.5560   68.4670   66.0930 N   0  0  0  0  0  0  0  0  0  0  0  0
   -1.7450   67.8970   66.9850 N   0  0  0  0  0  0  0  0  0  0  0  0
    4.1780   69.3010   64.7670 C   0  0  0  0  0  0  0  0  0  0  0  0
    5.2960   69.5120   63.9470 C   0  0  0  0  0  0  0  0  0  0  0  0
    5.2540   69.2080   62.5840 C   0  0  0  0  0  0  0  0  0  0  0  0
    4.0950   68.6910   62.0190 C   0  0  0  0  0  0  0  0  0  0  0  0
    2.9720   68.4850   62.8180 C   0  0  0  0  0  0  0  0  0  0  0  0
    2.9920   68.7880   64.1930 C   0  0  0  0  0  0  0  0  0  0  0  0
    4.1620   69.5780   66.1100 O   0  0  0  0  0  0  0  0  0  0  0  0
    5.3800   69.8690   66.8000 C   0  0  0  0  0  0  0  0  0  0  0  0
    6.4030   70.9440   68.8540 C   0  0  0  0  0  0  0  0  0  0  0  0
    5.1150   70.5710   68.1320 C   0  0  0  0  0  0  0  0  0  0  0  0
    2.7817   67.6096   66.4915 H   0  0  0  0  0  0  0  0  0  0  0  0
   -2.1585   69.3979   64.2390 H   0  0  0  0  0  0  0  0  0  0  0  0
    6.2187   69.9225   64.3830 H   0  0  0  0  0  0  0  0  0  0  0  0
    6.1412   69.3785   61.9565 H   0  0  0  0  0  0  0  0  0  0  0  0
    4.0639   68.4457   60.9472 H   0  0  0  0  0  0  0  0  0  0  0  0
    2.0546   68.0789   62.3670 H   0  0  0  0  0  0  0  0  0  0  0  0
    5.9156   68.9277   66.9924 H   0  0  0  0  0  0  0  0  0  0  0  0
    5.9820   70.5401   66.1698 H   0  0  0  0  0  0  0  0  0  0  0  0
    6.2408   70.8970   69.9410 H   0  0  0  0  0  0  0  0  0  0  0  0
    7.1991   70.2395   68.5713 H   0  0  0  0  0  0  0  0  0  0  0  0
    6.6994   71.9649   68.5713 H   0  0  0  0  0  0  0  0  0  0  0  0
    4.5301   69.8982   68.7764 H   0  0  0  0  0  0  0  0  0  0  0  0
    4.5665   71.5005   67.9197 H   0  0  0  0  0  0  0  0  0  0  0  0
  2  1  1  0
  3  2  1  0
  4  3  2  0
  5  3  1  0
  6  5  2  0
  7  6  1  0
  7  1  2  0
  8  6  1  0
  9  8  1  0
 10  9  2  0
 10  5  1  0
 12 11  2  0
 13 12  1  0
 14 13  2  0
 15 14  1  0
 16 15  2  0
 16 11  1  0
 16  1  1  0
 17 11  1  0
 18 17  1  0
 20 19  1  0
 20 18  1  0
  2 21  1  0
  8 22  1  0
 12 23  1  0
 13 24  1  0
 14 25  1  0
 15 26  1  0
 18 27  1  0
 18 28  1  0
 19 29  1  0
 19 30  1  0
 19 31  1  0
 20 32  1  0
 20 33  1  0
M  END
>  <score>  (2) 
-9.455

$$$$
=
     RDKit          3D

 33 35  0  0  0  0  0  0  0  0999 V2000
    1.7120   69.0210   67.4020 C   0  0  0  0  0  0  0  0  0  0  0  0
    2.1520   69.6200   68.5870 N   0  0  0  0  0  0  0  0  0  0  0  0
    3.3830   70.2350   68.7720 C   0  0  0  0  0  0  0  0  0  0  0  0
    3.7080   70.7530   69.8340 O   0  0  0  0  0  0  0  0  0  0  0  0
    4.1870   70.1780   67.5830 C   0  0  0  0  0  0  0  0  0  0  0  0
    3.6610   69.5620   66.4760 C   0  0  0  0  0  0  0  0  0  0  0  0
    2.4520   68.9740   66.3210 N   0  0  0  0  0  0  0  0  0  0  0  0
    4.6480   69.6780   65.5460 N   0  0  0  0  0  0  0  0  0  0  0  0
    5.7180   70.3280   66.0530 N   0  0  0  0  0  0  0  0  0  0  0  0
    5.4390   70.6420   67.3190 N   0  0  0  0  0  0  0  0  0  0  0  0
   -0.0070   67.2300   68.1120 C   0  0  0  0  0  0  0  0  0  0  0  0
   -1.3200   66.7460   68.0290 C   0  0  0  0  0  0  0  0  0  0  0  0
   -2.2880   67.4200   67.2820 C   0  0  0  0  0  0  0  0  0  0  0  0
   -1.9600   68.5860   66.6040 C   0  0  0  0  0  0  0  0  0  0  0  0
   -0.6560   69.0760   66.6670 C   0  0  0  0  0  0  0  0  0  0  0  0
    0.3360   68.4100   67.4120 C   0  0  0  0  0  0  0  0  0  0  0  0
    0.9840   66.6130   68.8330 O   0  0  0  0  0  0  0  0  0  0  0  0
    0.8080   66.3610   70.2290 C   0  0  0  0  0  0  0  0  0  0  0  0
    2.2420   64.3000   70.5680 C   0  0  0  0  0  0  0  0  0  0  0  0
    0.8280   64.8640   70.5350 C   0  0  0  0  0  0  0  0  0  0  0  0
    1.5080   69.6034   69.3907 H   0  0  0  0  0  0  0  0  0  0  0  0
    4.5870   69.3178   64.5830 H   0  0  0  0  0  0  0  0  0  0  0  0
   -1.5916   65.8218   68.5601 H   0  0  0  0  0  0  0  0  0  0  0  0
   -3.3137   67.0258   67.2306 H   0  0  0  0  0  0  0  0  0  0  0  0
   -2.7242   69.1203   66.0205 H   0  0  0  0  0  0  0  0  0  0  0  0
   -0.3980   69.9982   66.1257 H   0  0  0  0  0  0  0  0  0  0  0  0
    1.6207   66.8505   70.7858 H   0  0  0  0  0  0  0  0  0  0  0  0
   -0.1707   66.7619   70.5312 H   0  0  0  0  0  0  0  0  0  0  0  0
    2.5616   64.1725   71.6128 H   0  0  0  0  0  0  0  0  0  0  0  0
    2.2602   63.3258   70.0575 H   0  0  0  0  0  0  0  0  0  0  0  0
    2.9257   64.9943   70.0575 H   0  0  0  0  0  0  0  0  0  0  0  0
    0.2547   64.3365   69.7584 H   0  0  0  0  0  0  0  0  0  0  0  0
    0.3840   64.7180   71.5308 H   0  0  0  0  0  0  0  0  0  0  0  0
  2  1  1  0
  3  2  1  0
  4  3  2  0
  5  3  1  0
  6  5  2  0
  7  6  1  0
  7  1  2  0
  8  6  1  0
  9  8  1  0
 10  9  2  0
 10  5  1  0
 12 11  2  0
 13 12  1  0
 14 13  2  0
 15 14  1  0
 16 15  2  0
 16 11  1  0
 16  1  1  0
 17 11  1  0
 18 17  1  0
 20 19  1  0
 20 18  1  0
  2 21  1  0
  8 22  1  0
 12 23  1  0
 13 24  1  0
 14 25  1  0
 15 26  1  0
 18 27  1  0
 18 28  1  0
 19 29  1  0
 19 30  1  0
 19 31  1  0
 20 32  1  0
 20 33  1  0
M  END
>  <score>  (3) 
-9.305

$$$$
=
     RDKit          3D

 33 35  0  0  0  0  0  0  0  0999 V2000
    1.2430   68.8990   67.4840 C   0  0  0  0  0  0  0  0  0  0  0  0
    0.9800   67.7320   68.2100 N   0  0  0  0  0  0  0  0  0  0  0  0
   -0.2340   67.0590   68.2440 C   0  0  0  0  0  0  0  0  0  0  0  0
   -0.4000   66.0320   68.8920 O   0  0  0  0  0  0  0  0  0  0  0  0
   -1.2250   67.7150   67.4400 C   0  0  0  0  0  0  0  0  0  0  0  0
   -0.8640   68.8580   66.7710 C   0  0  0  0  0  0  0  0  0  0  0  0
    0.3320   69.4910   66.7520 N   0  0  0  0  0  0  0  0  0  0  0  0
   -2.0020   69.2200   66.1180 N   0  0  0  0  0  0  0  0  0  0  0  0
   -3.0040   68.3500   66.3710 N   0  0  0  0  0  0  0  0  0  0  0  0
   -2.5290   67.4120   67.1910 N   0  0  0  0  0  0  0  0  0  0  0  0
    3.6180   69.3450   66.5750 C   0  0  0  0  0  0  0  0  0  0  0  0
    4.8860   69.9030   66.7900 C   0  0  0  0  0  0  0  0  0  0  0  0
    5.1780   70.5880   67.9710 C   0  0  0  0  0  0  0  0  0  0  0  0
    4.2100   70.7240   68.9580 C   0  0  0  0  0  0  0  0  0  0  0  0
    2.9470   70.1670   68.7650 C   0  0  0  0  0  0  0  0  0  0  0  0
    2.6330   69.4700   67.5820 C   0  0  0  0  0  0  0  0  0  0  0  0
    3.2720   68.6660   65.4350 O   0  0  0  0  0  0  0  0  0  0  0  0
    3.7980   69.0710   64.1680 C   0  0  0  0  0  0  0  0  0  0  0  0
    1.4750   68.7520   63.2090 C   0  0  0  0  0  0  0  0  0  0  0  0
    2.9670   68.5150   63.0130 C   0  0  0  0  0  0  0  0  0  0  0  0
    1.7525   67.3389   68.7664 H   0  0  0  0  0  0  0  0  0  0  0  0
   -2.0879   70.0478   65.5112 H   0  0  0  0  0  0  0  0  0  0  0  0
    5.6619   69.7997   66.0172 H   0  0  0  0  0  0  0  0  0  0  0  0
    6.1779   71.0214   68.1204 H   0  0  0  0  0  0  0  0  0  0  0  0
    4.4389   71.2680   69.8863 H   0  0  0  0  0  0  0  0  0  0  0  0
    2.1831   70.2735   69.5493 H   0  0  0  0  0  0  0  0  0  0  0  0
    3.7946   70.1697   64.1143 H   0  0  0  0  0  0  0  0  0  0  0  0
    4.8213   68.6776   64.0775 H   0  0  0  0  0  0  0  0  0  0  0  0
    1.2477   68.7881   64.2846 H   0  0  0  0  0  0  0  0  0  0  0  0
    1.1909   69.7065   62.7419 H   0  0  0  0  0  0  0  0  0  0  0  0
    0.9091   67.9325   62.7419 H   0  0  0  0  0  0  0  0  0  0  0  0
    3.1464   67.4324   62.9370 H   0  0  0  0  0  0  0  0  0  0  0  0
    3.2735   69.0379   62.0951 H   0  0  0  0  0  0  0  0  0  0  0  0
  2  1  1  0
  3  2  1  0
  4  3  2  0
  5  3  1  0
  6  5  2  0
  7  6  1  0
  7  1  2  0
  8  6  1  0
  9  8  1  0
 10  9  2  0
 10  5  1  0
 12 11  2  0
 13 12  1  0
 14 13  2  0
 15 14  1  0
 16 15  2  0
 16 11  1  0
 16  1  1  0
 17 11  1  0
 18 17  1  0
 20 19  1  0
 20 18  1  0
  2 21  1  0
  8 22  1  0
 12 23  1  0
 13 24  1  0
 14 25  1  0
 15 26  1  0
 18 27  1  0
 18 28  1  0
 19 29  1  0
 19 30  1  0
 19 31  1  0
 20 32  1  0
 20 33  1  0
M  END
>  <score>  (4) 
-9.216

$$$$
=
     RDKit          3D

 33 35  0  0  0  0  0  0  0  0999 V2000
    4.0430   69.4120   65.2760 C   0  0  0  0  0  0  0  0  0  0  0  0
    2.7190   68.9590   65.2610 N   0  0  0  0  0  0  0  0  0  0  0  0
    2.0310   68.5130   64.1400 C   0  0  0  0  0  0  0  0  0  0  0  0
    0.8720   68.1170   64.1930 O   0  0  0  0  0  0  0  0  0  0  0  0
    2.8450   68.5780   62.9590 C   0  0  0  0  0  0  0  0  0  0  0  0
    4.1300   69.0420   63.0830 C   0  0  0  0  0  0  0  0  0  0  0  0
    4.7790   69.4670   64.1930 N   0  0  0  0  0  0  0  0  0  0  0  0
    4.6180   68.9770   61.8150 N   0  0  0  0  0  0  0  0  0  0  0  0
    3.6860   68.5010   60.9600 N   0  0  0  0  0  0  0  0  0  0  0  0
    2.5810   68.2500   61.6650 N   0  0  0  0  0  0  0  0  0  0  0  0
    3.8380   69.9890   67.7830 C   0  0  0  0  0  0  0  0  0  0  0  0
    4.4690   70.4260   68.9570 C   0  0  0  0  0  0  0  0  0  0  0  0
    5.8360   70.7100   68.9730 C   0  0  0  0  0  0  0  0  0  0  0  0
    6.5940   70.5650   67.8190 C   0  0  0  0  0  0  0  0  0  0  0  0
    5.9810   70.1400   66.6410 C   0  0  0  0  0  0  0  0  0  0  0  0
    4.6030   69.8520   66.6020 C   0  0  0  0  0  0  0  0  0  0  0  0
    2.5010   69.6920   67.7080 O   0  0  0  0  0  0  0  0  0  0  0  0
    1.9240   68.7370   68.6020 C   0  0  0  0  0  0  0  0  0  0  0  0
   -0.2410   69.1620   67.3560 C   0  0  0  0  0  0  0  0  0  0  0  0
    0.6520   68.1220   68.0200 C   0  0  0  0  0  0  0  0  0  0  0  0
    2.2117   68.9561   66.1574 H   0  0  0  0  0  0  0  0  0  0  0  0
    5.5719   69.2540   61.5425 H   0  0  0  0  0  0  0  0  0  0  0  0
    3.8790   70.5466   69.8775 H   0  0  0  0  0  0  0  0  0  0  0  0
    6.3141   71.0499   69.9035 H   0  0  0  0  0  0  0  0  0  0  0  0
    7.6719   70.7841   67.8339 H   0  0  0  0  0  0  0  0  0  0  0  0
    6.5834   70.0279   65.7275 H   0  0  0  0  0  0  0  0  0  0  0  0
    2.6545   67.9363   68.7898 H   0  0  0  0  0  0  0  0  0  0  0  0
    1.6609   69.2542   69.5365 H   0  0  0  0  0  0  0  0  0  0  0  0
   -0.7505   69.7554   68.1295 H   0  0  0  0  0  0  0  0  0  0  0  0
    0.3727   69.8260   66.7295 H   0  0  0  0  0  0  0  0  0  0  0  0
   -0.9901   68.6558   66.7295 H   0  0  0  0  0  0  0  0  0  0  0  0
    0.0890   67.6389   68.8321 H   0  0  0  0  0  0  0  0  0  0  0  0
    0.9511   67.3947   67.2509 H   0  0  0  0  0  0  0  0  0  0  0  0
  2  1  1  0
  3  2  1  0
  4  3  2  0
  5  3  1  0
  6  5  2  0
  7  6  1  0
  7  1  2  0
  8  6  1  0
  9  8  1  0
 10  9  2  0
 10  5  1  0
 12 11  2  0
 13 12  1  0
 14 13  2  0
 15 14  1  0
 16 15  2  0
 16 11  1  0
 16  1  1  0
 17 11  1  0
 18 17  1  0
 20 19  1  0
 20 18  1  0
  2 21  1  0
  8 22  1  0
 12 23  1  0
 13 24  1  0
 14 25  1  0
 15 26  1  0
 18 27  1  0
 18 28  1  0
 19 29  1  0
 19 30  1  0
 19 31  1  0
 20 32  1  0
 20 33  1  0
M  END
>  <score>  (5) 
-8.941

$$$$
=
     RDKit          3D

 33 35  0  0  0  0  0  0  0  0999 V2000
    4.0330   69.5880   66.1530 C   0  0  0  0  0  0  0  0  0  0  0  0
    3.3030   69.8060   67.3270 N   0  0  0  0  0  0  0  0  0  0  0  0
    3.8290   70.2450   68.5350 C   0  0  0  0  0  0  0  0  0  0  0  0
    3.1340   70.4280   69.5280 O   0  0  0  0  0  0  0  0  0  0  0  0
    5.2480   70.4470   68.4520 C   0  0  0  0  0  0  0  0  0  0  0  0
    5.8680   70.1990   67.2530 C   0  0  0  0  0  0  0  0  0  0  0  0
    5.3290   69.7750   66.0860 N   0  0  0  0  0  0  0  0  0  0  0  0
    7.1750   70.4820   67.5040 N   0  0  0  0  0  0  0  0  0  0  0  0
    7.3480   70.8800   68.7840 N   0  0  0  0  0  0  0  0  0  0  0  0
    6.1550   70.8610   69.3790 N   0  0  0  0  0  0  0  0  0  0  0  0
    1.9170   68.6950   64.9760 C   0  0  0  0  0  0  0  0  0  0  0  0
    1.3150   68.2520   63.7890 C   0  0  0  0  0  0  0  0  0  0  0  0
    2.0270   68.2340   62.5870 C   0  0  0  0  0  0  0  0  0  0  0  0
    3.3500   68.6540   62.5520 C   0  0  0  0  0  0  0  0  0  0  0  0
    3.9660   69.0880   63.7250 C   0  0  0  0  0  0  0  0  0  0  0  0
    3.2670   69.1120   64.9480 C   0  0  0  0  0  0  0  0  0  0  0  0
    1.2670   68.7390   66.1830 O   0  0  0  0  0  0  0  0  0  0  0  0
   -0.1510   68.5630   66.2440 C   0  0  0  0  0  0  0  0  0  0  0  0
   -2.0180   67.2420   67.3320 C   0  0  0  0  0  0  0  0  0  0  0  0
   -0.5250   67.3140   67.0400 C   0  0  0  0  0  0  0  0  0  0  0  0
    2.2895   69.6255   67.2921 H   0  0  0  0  0  0  0  0  0  0  0  0
    7.9323   70.4033   66.8103 H   0  0  0  0  0  0  0  0  0  0  0  0
    0.2683   67.9142   63.8047 H   0  0  0  0  0  0  0  0  0  0  0  0
    1.5378   67.8859   61.6653 H   0  0  0  0  0  0  0  0  0  0  0  0
    3.9087   68.6444   61.6045 H   0  0  0  0  0  0  0  0  0  0  0  0
    5.0152   69.4171   63.6951 H   0  0  0  0  0  0  0  0  0  0  0  0
   -0.6002   69.4431   66.7274 H   0  0  0  0  0  0  0  0  0  0  0  0
   -0.5292   68.4451   65.2178 H   0  0  0  0  0  0  0  0  0  0  0  0
   -2.1788   67.2342   68.4202 H   0  0  0  0  0  0  0  0  0  0  0  0
   -2.5200   68.1170   66.8934 H   0  0  0  0  0  0  0  0  0  0  0  0
   -2.4335   66.3228   66.8934 H   0  0  0  0  0  0  0  0  0  0  0  0
    0.0222   67.3253   67.9942 H   0  0  0  0  0  0  0  0  0  0  0  0
   -0.2571   66.4356   66.4345 H   0  0  0  0  0  0  0  0  0  0  0  0
  2  1  1  0
  3  2  1  0
  4  3  2  0
  5  3  1  0
  6  5  2  0
  7  6  1  0
  7  1  2  0
  8  6  1  0
  9  8  1  0
 10  9  2  0
 10  5  1  0
 12 11  2  0
 13 12  1  0
 14 13  2  0
 15 14  1  0
 16 15  2  0
 16 11  1  0
 16  1  1  0
 17 11  1  0
 18 17  1  0
 20 19  1  0
 20 18  1  0
  2 21  1  0
  8 22  1  0
 12 23  1  0
 13 24  1  0
 14 25  1  0
 15 26  1  0
 18 27  1  0
 18 28  1  0
 19 29  1  0
 19 30  1  0
 19 31  1  0
 20 32  1  0
 20 33  1  0
M  END
>  <score>  (6) 
-8.587

$$$$
=
     RDKit          3D

 33 35  0  0  0  0  0  0  0  0999 V2000
    1.4810   67.0670   64.8980 C   0  0  0  0  0  0  0  0  0  0  0  0
    0.9730   67.9500   63.9400 N   0  0  0  0  0  0  0  0  0  0  0  0
   -0.1600   68.7400   64.0890 C   0  0  0  0  0  0  0  0  0  0  0  0
   -0.5500   69.5050   63.2140 O   0  0  0  0  0  0  0  0  0  0  0  0
   -0.7810   68.5380   65.3680 C   0  0  0  0  0  0  0  0  0  0  0  0
   -0.2030   67.6440   66.2340 C   0  0  0  0  0  0  0  0  0  0  0  0
    0.9080   66.8890   66.0640 N   0  0  0  0  0  0  0  0  0  0  0  0
   -1.0130   67.6860   67.3260 N   0  0  0  0  0  0  0  0  0  0  0  0
   -2.0310   68.5560   67.1420 N   0  0  0  0  0  0  0  0  0  0  0  0
   -1.8920   69.0890   65.9270 N   0  0  0  0  0  0  0  0  0  0  0  0
    3.8480   66.8720   63.8870 C   0  0  0  0  0  0  0  0  0  0  0  0
    4.9450   66.0540   63.5830 C   0  0  0  0  0  0  0  0  0  0  0  0
    4.9490   64.7000   63.9260 C   0  0  0  0  0  0  0  0  0  0  0  0
    3.8560   64.1420   64.5750 C   0  0  0  0  0  0  0  0  0  0  0  0
    2.7520   64.9380   64.8760 C   0  0  0  0  0  0  0  0  0  0  0  0
    2.7270   66.3040   64.5360 C   0  0  0  0  0  0  0  0  0  0  0  0
    3.7890   68.2070   63.5780 O   0  0  0  0  0  0  0  0  0  0  0  0
    4.7120   69.1240   64.1710 C   0  0  0  0  0  0  0  0  0  0  0  0
    5.5000   69.9460   66.4340 C   0  0  0  0  0  0  0  0  0  0  0  0
    4.3150   69.4670   65.6060 C   0  0  0  0  0  0  0  0  0  0  0  0
    1.4824   68.0207   63.0476 H   0  0  0  0  0  0  0  0  0  0  0  0
   -0.8696   67.1286   68.1802 H   0  0  0  0  0  0  0  0  0  0  0  0
    5.8156   66.4848   63.0667 H   0  0  0  0  0  0  0  0  0  0  0  0
    5.8201   64.0745   63.6813 H   0  0  0  0  0  0  0  0  0  0  0  0
    3.8611   63.0770   64.8503 H   0  0  0  0  0  0  0  0  0  0  0  0
    1.8864   64.4917   65.3874 H   0  0  0  0  0  0  0  0  0  0  0  0
    5.7139   68.6700   64.1759 H   0  0  0  0  0  0  0  0  0  0  0  0
    4.7059   70.0515   63.5796 H   0  0  0  0  0  0  0  0  0  0  0  0
    5.2625   69.8500   67.5038 H   0  0  0  0  0  0  0  0  0  0  0  0
    6.3833   69.3343   66.1982 H   0  0  0  0  0  0  0  0  0  0  0  0
    5.7101   70.9997   66.1982 H   0  0  0  0  0  0  0  0  0  0  0  0
    3.8917   68.5693   66.0803 H   0  0  0  0  0  0  0  0  0  0  0  0
    3.5798   70.2843   65.5659 H   0  0  0  0  0  0  0  0  0  0  0  0
  2  1  1  0
  3  2  1  0
  4  3  2  0
  5  3  1  0
  6  5  2  0
  7  6  1  0
  7  1  2  0
  8  6  1  0
  9  8  1  0
 10  9  2  0
 10  5  1  0
 12 11  2  0
 13 12  1  0
 14 13  2  0
 15 14  1  0
 16 15  2  0
 16 11  1  0
 16  1  1  0
 17 11  1  0
 18 17  1  0
 20 19  1  0
 20 18  1  0
  2 21  1  0
  8 22  1  0
 12 23  1  0
 13 24  1  0
 14 25  1  0
 15 26  1  0
 18 27  1  0
 18 28  1  0
 19 29  1  0
 19 30  1  0
 19 31  1  0
 20 32  1  0
 20 33  1  0
M  END
>  <score>  (7) 
-8.354

$$$$
=
     RDKit          3D

 33 35  0  0  0  0  0  0  0  0999 V2000
    0.8570   68.2300   65.1600 C   0  0  0  0  0  0  0  0  0  0  0  0
   -0.3770   68.7560   64.7640 N   0  0  0  0  0  0  0  0  0  0  0  0
   -1.5700   68.6320   65.4650 C   0  0  0  0  0  0  0  0  0  0  0  0
   -2.6200   69.1250   65.0700 O   0  0  0  0  0  0  0  0  0  0  0  0
   -1.3980   67.8730   66.6710 C   0  0  0  0  0  0  0  0  0  0  0  0
   -0.1450   67.3980   66.9650 C   0  0  0  0  0  0  0  0  0  0  0  0
    1.0050   67.5390   66.2640 N   0  0  0  0  0  0  0  0  0  0  0  0
   -0.3190   66.7400   68.1430 N   0  0  0  0  0  0  0  0  0  0  0  0
   -1.6050   66.8070   68.5500 N   0  0  0  0  0  0  0  0  0  0  0  0
   -2.2820   67.5090   67.6410 N   0  0  0  0  0  0  0  0  0  0  0  0
    3.3500   68.7230   64.7070 C   0  0  0  0  0  0  0  0  0  0  0  0
    4.3610   68.9640   63.7650 C   0  0  0  0  0  0  0  0  0  0  0  0
    4.0840   68.9530   62.3970 C   0  0  0  0  0  0  0  0  0  0  0  0
    2.7940   68.7040   61.9470 C   0  0  0  0  0  0  0  0  0  0  0  0
    1.7750   68.4720   62.8700 C   0  0  0  0  0  0  0  0  0  0  0  0
    2.0330   68.4810   64.2540 C   0  0  0  0  0  0  0  0  0  0  0  0
    3.5630   68.7170   66.0620 O   0  0  0  0  0  0  0  0  0  0  0  0
    4.0410   69.8930   66.7200 C   0  0  0  0  0  0  0  0  0  0  0  0
    6.0550   71.0150   67.7720 C   0  0  0  0  0  0  0  0  0  0  0  0
    5.5400   69.8050   67.0040 C   0  0  0  0  0  0  0  0  0  0  0  0
   -0.4035   69.2797   63.8775 H   0  0  0  0  0  0  0  0  0  0  0  0
    0.4307   66.2550   68.6564 H   0  0  0  0  0  0  0  0  0  0  0  0
    5.3864   69.1644   64.1091 H   0  0  0  0  0  0  0  0  0  0  0  0
    4.8902   69.1422   61.6729 H   0  0  0  0  0  0  0  0  0  0  0  0
    2.5774   68.6899   60.8686 H   0  0  0  0  0  0  0  0  0  0  0  0
    0.7533   68.2789   62.5111 H   0  0  0  0  0  0  0  0  0  0  0  0
    3.8494   70.7651   66.0775 H   0  0  0  0  0  0  0  0  0  0  0  0
    3.5127   69.9906   67.6799 H   0  0  0  0  0  0  0  0  0  0  0  0
    5.9742   70.8251   68.8525 H   0  0  0  0  0  0  0  0  0  0  0  0
    7.1078   71.1952   67.5091 H   0  0  0  0  0  0  0  0  0  0  0  0
    5.4550   71.8987   67.5091 H   0  0  0  0  0  0  0  0  0  0  0  0
    6.0780   69.7384   66.0469 H   0  0  0  0  0  0  0  0  0  0  0  0
    5.7130   68.9138   67.6251 H   0  0  0  0  0  0  0  0  0  0  0  0
  2  1  1  0
  3  2  1  0
  4  3  2  0
  5  3  1  0
  6  5  2  0
  7  6  1  0
  7  1  2  0
  8  6  1  0
  9  8  1  0
 10  9  2  0
 10  5  1  0
 12 11  2  0
 13 12  1  0
 14 13  2  0
 15 14  1  0
 16 15  2  0
 16 11  1  0
 16  1  1  0
 17 11  1  0
 18 17  1  0
 20 19  1  0
 20 18  1  0
  2 21  1  0
  8 22  1  0
 12 23  1  0
 13 24  1  0
 14 25  1  0
 15 26  1  0
 18 27  1  0
 18 28  1  0
 19 29  1  0
 19 30  1  0
 19 31  1  0
 20 32  1  0
 20 33  1  0
M  END
>  <score>  (8) 
-8.229

$$$$
=
     RDKit          3D

 33 35  0  0  0  0  0  0  0  0999 V2000
    4.5850   69.3640   65.8590 C   0  0  0  0  0  0  0  0  0  0  0  0
    5.8630   69.7090   66.3100 N   0  0  0  0  0  0  0  0  0  0  0  0
    6.1620   70.2380   67.5590 C   0  0  0  0  0  0  0  0  0  0  0  0
    7.3070   70.5120   67.9010 O   0  0  0  0  0  0  0  0  0  0  0  0
    4.9820   70.4080   68.3580 C   0  0  0  0  0  0  0  0  0  0  0  0
    3.7760   70.0410   67.8180 C   0  0  0  0  0  0  0  0  0  0  0  0
    3.5120   69.5210   66.5960 N   0  0  0  0  0  0  0  0  0  0  0  0
    2.8830   70.3200   68.8060 N   0  0  0  0  0  0  0  0  0  0  0  0
    3.5050   70.8300   69.8920 N   0  0  0  0  0  0  0  0  0  0  0  0
    4.8100   70.8870   69.6210 N   0  0  0  0  0  0  0  0  0  0  0  0
    3.7010   67.6720   64.1210 C   0  0  0  0  0  0  0  0  0  0  0  0
    3.6960   67.2290   62.7900 C   0  0  0  0  0  0  0  0  0  0  0  0
    4.4330   67.8960   61.8090 C   0  0  0  0  0  0  0  0  0  0  0  0
    5.1870   69.0130   62.1410 C   0  0  0  0  0  0  0  0  0  0  0  0
    5.2110   69.4610   63.4610 C   0  0  0  0  0  0  0  0  0  0  0  0
    4.4780   68.8010   64.4660 C   0  0  0  0  0  0  0  0  0  0  0  0
    2.9950   67.0600   65.1250 O   0  0  0  0  0  0  0  0  0  0  0  0
    1.5830   66.8690   65.0000 C   0  0  0  0  0  0  0  0  0  0  0  0
   -0.1540   68.4920   65.8730 C   0  0  0  0  0  0  0  0  0  0  0  0
    0.8570   68.1940   64.7750 C   0  0  0  0  0  0  0  0  0  0  0  0
    6.6487   69.5581   65.6613 H   0  0  0  0  0  0  0  0  0  0  0  0
    1.8674   70.1633   68.7355 H   0  0  0  0  0  0  0  0  0  0  0  0
    3.1034   66.3440   62.5152 H   0  0  0  0  0  0  0  0  0  0  0  0
    4.4159   67.5350   60.7701 H   0  0  0  0  0  0  0  0  0  0  0  0
    5.7624   69.5418   61.3669 H   0  0  0  0  0  0  0  0  0  0  0  0
    5.8123   70.3444   63.7217 H   0  0  0  0  0  0  0  0  0  0  0  0
    1.3864   66.2041   64.1460 H   0  0  0  0  0  0  0  0  0  0  0  0
    1.2104   66.4256   65.9352 H   0  0  0  0  0  0  0  0  0  0  0  0
    0.3201   68.3523   66.8557 H   0  0  0  0  0  0  0  0  0  0  0  0
   -0.5024   69.5311   65.7784 H   0  0  0  0  0  0  0  0  0  0  0  0
   -1.0103   67.8081   65.7784 H   0  0  0  0  0  0  0  0  0  0  0  0
    0.3293   68.1490   63.8109 H   0  0  0  0  0  0  0  0  0  0  0  0
    1.6097   68.9961   64.7837 H   0  0  0  0  0  0  0  0  0  0  0  0
  2  1  1  0
  3  2  1  0
  4  3  2  0
  5  3  1  0
  6  5  2  0
  7  6  1  0
  7  1  2  0
  8  6  1  0
  9  8  1  0
 10  9  2  0
 10  5  1  0
 12 11  2  0
 13 12  1  0
 14 13  2  0
 15 14  1  0
 16 15  2  0
 16 11  1  0
 16  1  1  0
 17 11  1  0
 18 17  1  0
 20 19  1  0
 20 18  1  0
  2 21  1  0
  8 22  1  0
 12 23  1  0
 13 24  1  0
 14 25  1  0
 15 26  1  0
 18 27  1  0
 18 28  1  0
 19 29  1  0
 19 30  1  0
 19 31  1  0
 20 32  1  0
 20 33  1  0
M  END
>  <score>  (9) 
-8.017

$$$$
