=
     RDKit          3D

 53 53  0  0  0  0  0  0  0  0999 V2000
    1.9010   68.5210   66.5110 C   0  0  0  0  0  0  0  0  0  0  0  0
    3.0360   69.3340   66.4280 C   0  0  0  0  0  0  0  0  0  0  0  0
    4.0770   69.0000   65.5490 C   0  0  0  0  0  0  0  0  0  0  0  0
    3.9790   67.8140   64.8030 C   0  0  0  0  0  0  0  0  0  0  0  0
    2.8330   67.0190   64.8970 C   0  0  0  0  0  0  0  0  0  0  0  0
    1.8000   67.3500   65.7670 C   0  0  0  0  0  0  0  0  0  0  0  0
    0.8400   68.8050   67.3900 O   0  0  0  0  0  0  0  0  0  0  0  0
    0.1720   66.8930   68.5130 O   0  0  0  0  0  0  0  0  0  0  0  0
   -0.0670   67.7920   67.7120 C   0  0  0  0  0  0  0  0  0  0  0  0
   -1.2680   67.9120   67.0240 N   0  0  0  0  0  0  0  0  0  0  0  0
   -1.5980   69.0790   66.2220 C   0  0  0  0  0  0  0  0  0  0  0  0
   -2.3670   67.0340   67.3800 C   0  0  0  0  0  0  0  0  0  0  0  0
    2.6920   65.8240   64.1700 O   0  0  0  0  0  0  0  0  0  0  0  0
    3.8180   65.2760   63.5480 C   0  0  0  0  0  0  0  0  0  0  0  0
    4.2640   65.6720   62.4740 O   0  0  0  0  0  0  0  0  0  0  0  0
    4.3810   64.2400   64.2800 N   0  0  0  0  0  0  0  0  0  0  0  0
    3.7340   63.6670   65.4480 C   0  0  0  0  0  0  0  0  0  0  0  0
    5.4470   63.4600   63.6790 C   0  0  0  0  0  0  0  0  0  0  0  0
    5.2660   69.9130   65.4080 C   0  0  2  0  0  0  0  0  0  0  0  0
    6.0340   69.5960   64.2300 O   0  0  0  0  0  0  0  0  0  0  0  0
    6.2360   69.8310   66.6030 C   0  0  0  0  0  0  0  0  0  0  0  0
    6.4230   71.2340   67.1320 N   0  0  0  0  0  4  0  0  0  0  0  0
    6.2630   71.4310   68.6030 C   0  0  0  0  0  0  0  0  0  0  0  0
    5.0140   70.6780   69.0440 C   0  0  0  0  0  0  0  0  0  0  0  0
    7.5030   70.9200   69.3250 C   0  0  0  0  0  0  0  0  0  0  0  0
    3.1125   70.2362   67.0526 H   0  0  0  0  0  0  0  0  0  0  0  0
    4.8054   67.5102   64.1437 H   0  0  0  0  0  0  0  0  0  0  0  0
    0.9195   66.6981   65.8651 H   0  0  0  0  0  0  0  0  0  0  0  0
   -1.8369   69.9238   66.8848 H   0  0  0  0  0  0  0  0  0  0  0  0
   -0.7391   69.3425   65.5872 H   0  0  0  0  0  0  0  0  0  0  0  0
   -2.4676   68.8537   65.5872 H   0  0  0  0  0  0  0  0  0  0  0  0
   -2.4459   66.9710   68.4754 H   0  0  0  0  0  0  0  0  0  0  0  0
   -3.3047   67.4344   66.9673 H   0  0  0  0  0  0  0  0  0  0  0  0
   -2.1835   66.0310   66.9673 H   0  0  0  0  0  0  0  0  0  0  0  0
    4.1948   64.0751   66.3596 H   0  0  0  0  0  0  0  0  0  0  0  0
    2.6632   63.9184   65.4343 H   0  0  0  0  0  0  0  0  0  0  0  0
    3.8541   62.5737   65.4343 H   0  0  0  0  0  0  0  0  0  0  0  0
    6.0630   63.0093   64.4711 H   0  0  0  0  0  0  0  0  0  0  0  0
    5.0127   62.6649   63.0552 H   0  0  0  0  0  0  0  0  0  0  0  0
    6.0734   64.1146   63.0552 H   0  0  0  0  0  0  0  0  0  0  0  0
    4.8377   70.9244   65.3485 H   0  0  0  0  0  0  0  0  0  0  0  0
    6.9149   69.2324   64.4983 H   0  0  0  0  0  0  0  0  0  0  0  0
    5.8121   69.1870   67.3876 H   0  0  0  0  0  0  0  0  0  0  0  0
    7.1999   69.4023   66.2914 H   0  0  0  0  0  0  0  0  0  0  0  0
    7.3746   71.5368   66.8797 H   0  0  0  0  0  0  0  0  0  0  0  0
    5.6644   71.7842   66.7046 H   0  0  0  0  0  0  0  0  0  0  0  0
    6.1504   72.4972   68.8491 H   0  0  0  0  0  0  0  0  0  0  0  0
    4.9705   70.6518   70.1428 H   0  0  0  0  0  0  0  0  0  0  0  0
    4.1212   71.1885   68.6538 H   0  0  0  0  0  0  0  0  0  0  0  0
    5.0486   69.6501   68.6538 H   0  0  0  0  0  0  0  0  0  0  0  0
    7.3470   70.9843   70.4120 H   0  0  0  0  0  0  0  0  0  0  0  0
    7.6866   69.8729   69.0422 H   0  0  0  0  0  0  0  0  0  0  0  0
    8.3710   71.5337   69.0422 H   0  0  0  0  0  0  0  0  0  0  0  0
  2  1  2  0
  3  2  1  0
  4  3  2  0
  5  4  1  0
  6  5  2  0
  6  1  1  0
  7  1  1  0
  9  8  2  0
  9  7  1  0
 10  9  1  0
 11 10  1  0
 12 10  1  0
 13  5  1  0
 14 13  1  0
 15 14  2  0
 16 14  1  0
 17 16  1  0
 18 16  1  0
 19  3  1  0
 20 19  1  0
 21 19  1  0
 22 21  1  0
 23 22  1  0
 24 23  1  0
 25 23  1  0
  2 26  1  0
  4 27  1  0
  6 28  1  0
 11 29  1  0
 11 30  1  0
 11 31  1  0
 12 32  1  0
 12 33  1  0
 12 34  1  0
 17 35  1  0
 17 36  1  0
 17 37  1  0
 18 38  1  0
 18 39  1  0
 18 40  1  0
 19 41  1  6
 20 42  1  0
 21 43  1  0
 21 44  1  0
 22 45  1  0
 22 46  1  0
 23 47  1  0
 24 48  1  0
 24 49  1  0
 24 50  1  0
 25 51  1  0
 25 52  1  0
 25 53  1  0
M  CHG  1  22   1
M  END
>  <score>  (1) 
-9.008

$$$$
=
     RDKit          3D

 53 53  0  0  0  0  0  0  0  0999 V2000
    2.8010   66.9460   64.9950 C   0  0  0  0  0  0  0  0  0  0  0  0
    3.8990   67.7940   64.8100 C   0  0  0  0  0  0  0  0  0  0  0  0
    4.0120   68.9720   65.5650 C   0  0  0  0  0  0  0  0  0  0  0  0
    2.9820   69.3030   66.4600 C   0  0  0  0  0  0  0  0  0  0  0  0
    1.8980   68.4390   66.6340 C   0  0  0  0  0  0  0  0  0  0  0  0
    1.7850   67.2710   65.8870 C   0  0  0  0  0  0  0  0  0  0  0  0
    2.6350   65.7650   64.2500 O   0  0  0  0  0  0  0  0  0  0  0  0
    4.2230   65.6770   62.5660 O   0  0  0  0  0  0  0  0  0  0  0  0
    3.7390   65.2130   63.5940 C   0  0  0  0  0  0  0  0  0  0  0  0
    4.2270   64.0790   64.2320 N   0  0  0  0  0  0  0  0  0  0  0  0
    3.7580   63.6530   65.5400 C   0  0  0  0  0  0  0  0  0  0  0  0
    5.4720   63.4970   63.7640 C   0  0  0  0  0  0  0  0  0  0  0  0
    0.8450   68.7310   67.5180 O   0  0  0  0  0  0  0  0  0  0  0  0
   -0.0940   67.7340   67.8010 C   0  0  0  0  0  0  0  0  0  0  0  0
    0.1500   66.7420   68.4830 O   0  0  0  0  0  0  0  0  0  0  0  0
   -1.3330   67.9910   67.2330 N   0  0  0  0  0  0  0  0  0  0  0  0
   -1.5480   69.0680   66.2800 C   0  0  0  0  0  0  0  0  0  0  0  0
   -2.3560   66.9630   67.2920 C   0  0  0  0  0  0  0  0  0  0  0  0
    5.2270   69.8470   65.4150 C   0  0  2  0  0  0  0  0  0  0  0  0
    6.0010   69.4780   64.2560 O   0  0  0  0  0  0  0  0  0  0  0  0
    6.1800   69.7720   66.6250 C   0  0  0  0  0  0  0  0  0  0  0  0
    6.4000   71.1840   67.1170 N   0  0  0  0  0  4  0  0  0  0  0  0
    6.2380   71.4240   68.5810 C   0  0  0  0  0  0  0  0  0  0  0  0
    4.9510   70.7410   69.0290 C   0  0  0  0  0  0  0  0  0  0  0  0
    7.4460   70.8730   69.3260 C   0  0  0  0  0  0  0  0  0  0  0  0
    4.6738   67.5372   64.0726 H   0  0  0  0  0  0  0  0  0  0  0  0
    3.0287   70.2452   67.0257 H   0  0  0  0  0  0  0  0  0  0  0  0
    0.9081   66.6166   65.9998 H   0  0  0  0  0  0  0  0  0  0  0  0
    4.3306   64.1731   66.3221 H   0  0  0  0  0  0  0  0  0  0  0  0
    2.6904   63.8966   65.6439 H   0  0  0  0  0  0  0  0  0  0  0  0
    3.8981   62.5669   65.6439 H   0  0  0  0  0  0  0  0  0  0  0  0
    6.0893   63.2084   64.6275 H   0  0  0  0  0  0  0  0  0  0  0  0
    5.2547   62.6072   63.1549 H   0  0  0  0  0  0  0  0  0  0  0  0
    6.0154   64.2344   63.1549 H   0  0  0  0  0  0  0  0  0  0  0  0
   -1.7353   70.0061   66.8230 H   0  0  0  0  0  0  0  0  0  0  0  0
   -0.6549   69.1821   65.6480 H   0  0  0  0  0  0  0  0  0  0  0  0
   -2.4165   68.8305   65.6480 H   0  0  0  0  0  0  0  0  0  0  0  0
   -2.5847   66.7332   68.3431 H   0  0  0  0  0  0  0  0  0  0  0  0
   -3.2659   67.3219   66.7888 H   0  0  0  0  0  0  0  0  0  0  0  0
   -1.9927   66.0548   66.7888 H   0  0  0  0  0  0  0  0  0  0  0  0
    4.8269   70.8674   65.3224 H   0  0  0  0  0  0  0  0  0  0  0  0
    6.8555   69.0706   64.5458 H   0  0  0  0  0  0  0  0  0  0  0  0
    5.7285   69.1626   67.4217 H   0  0  0  0  0  0  0  0  0  0  0  0
    7.1352   69.3080   66.3382 H   0  0  0  0  0  0  0  0  0  0  0  0
    7.3601   71.4559   66.8619 H   0  0  0  0  0  0  0  0  0  0  0  0
    5.6578   71.7416   66.6707 H   0  0  0  0  0  0  0  0  0  0  0  0
    6.1740   72.5000   68.8002 H   0  0  0  0  0  0  0  0  0  0  0  0
    4.9107   70.7196   70.1281 H   0  0  0  0  0  0  0  0  0  0  0  0
    4.0858   71.2986   68.6411 H   0  0  0  0  0  0  0  0  0  0  0  0
    4.9278   69.7119   68.6411 H   0  0  0  0  0  0  0  0  0  0  0  0
    7.2752   70.9509   70.4099 H   0  0  0  0  0  0  0  0  0  0  0  0
    7.5951   69.8178   69.0532 H   0  0  0  0  0  0  0  0  0  0  0  0
    8.3405   71.4521   69.0532 H   0  0  0  0  0  0  0  0  0  0  0  0
  2  1  2  0
  3  2  1  0
  4  3  2  0
  5  4  1  0
  6  5  2  0
  6  1  1  0
  7  1  1  0
  9  8  2  0
  9  7  1  0
 10  9  1  0
 11 10  1  0
 12 10  1  0
 13  5  1  0
 14 13  1  0
 15 14  2  0
 16 14  1  0
 17 16  1  0
 18 16  1  0
 19  3  1  0
 20 19  1  0
 21 19  1  0
 22 21  1  0
 23 22  1  0
 24 23  1  0
 25 23  1  0
  2 26  1  0
  4 27  1  0
  6 28  1  0
 11 29  1  0
 11 30  1  0
 11 31  1  0
 12 32  1  0
 12 33  1  0
 12 34  1  0
 17 35  1  0
 17 36  1  0
 17 37  1  0
 18 38  1  0
 18 39  1  0
 18 40  1  0
 19 41  1  6
 20 42  1  0
 21 43  1  0
 21 44  1  0
 22 45  1  0
 22 46  1  0
 23 47  1  0
 24 48  1  0
 24 49  1  0
 24 50  1  0
 25 51  1  0
 25 52  1  0
 25 53  1  0
M  CHG  1  22   1
M  END
>  <score>  (2) 
-8.894

$$$$
=
     RDKit          3D

 53 53  0  0  0  0  0  0  0  0999 V2000
    3.3420   69.1180   66.0080 C   0  0  0  0  0  0  0  0  0  0  0  0
    4.0160   68.8580   64.8110 C   0  0  0  0  0  0  0  0  0  0  0  0
    3.2950   68.5050   63.6600 C   0  0  0  0  0  0  0  0  0  0  0  0
    1.9010   68.3680   63.7510 C   0  0  0  0  0  0  0  0  0  0  0  0
    1.2460   68.6390   64.9550 C   0  0  0  0  0  0  0  0  0  0  0  0
    1.9590   68.9890   66.0960 C   0  0  0  0  0  0  0  0  0  0  0  0
    4.0220   69.4580   67.1910 O   0  0  0  0  0  0  0  0  0  0  0  0
    5.7700   70.4740   66.0610 O   0  0  0  0  0  0  0  0  0  0  0  0
    5.1810   70.2350   67.1110 C   0  0  0  0  0  0  0  0  0  0  0  0
    5.5940   70.7050   68.3510 N   0  0  0  0  0  0  0  0  0  0  0  0
    4.7870   70.5640   69.5520 C   0  0  0  0  0  0  0  0  0  0  0  0
    6.6820   71.6640   68.4060 C   0  0  0  0  0  0  0  0  0  0  0  0
   -0.1480   68.5140   65.0920 O   0  0  0  0  0  0  0  0  0  0  0  0
   -0.6550   67.6750   66.0900 C   0  0  0  0  0  0  0  0  0  0  0  0
   -0.0390   66.7180   66.5530 O   0  0  0  0  0  0  0  0  0  0  0  0
   -1.9270   68.0450   66.5020 N   0  0  0  0  0  0  0  0  0  0  0  0
   -2.7080   69.0590   65.8140 C   0  0  0  0  0  0  0  0  0  0  0  0
   -2.6520   67.1680   67.4030 C   0  0  0  0  0  0  0  0  0  0  0  0
    4.0150   68.2940   62.3550 C   0  0  2  0  0  0  0  0  0  0  0  0
    3.0910   68.0130   61.2850 O   0  0  0  0  0  0  0  0  0  0  0  0
    5.0120   67.1180   62.3980 C   0  0  0  0  0  0  0  0  0  0  0  0
    4.2160   65.8590   62.6510 N   0  0  0  0  0  4  0  0  0  0  0  0
    4.4180   65.1830   63.9670 C   0  0  0  0  0  0  0  0  0  0  0  0
    3.0750   65.1430   64.6850 C   0  0  0  0  0  0  0  0  0  0  0  0
    4.9690   63.7810   63.7420 C   0  0  0  0  0  0  0  0  0  0  0  0
    5.1129   68.9302   64.7714 H   0  0  0  0  0  0  0  0  0  0  0  0
    1.3228   68.0465   62.8722 H   0  0  0  0  0  0  0  0  0  0  0  0
    1.4398   69.1608   67.0504 H   0  0  0  0  0  0  0  0  0  0  0  0
    5.4274   70.6759   70.4393 H   0  0  0  0  0  0  0  0  0  0  0  0
    4.0069   71.3395   69.5627 H   0  0  0  0  0  0  0  0  0  0  0  0
    4.3161   69.5700   69.5627 H   0  0  0  0  0  0  0  0  0  0  0  0
    6.9274   71.8803   69.4562 H   0  0  0  0  0  0  0  0  0  0  0  0
    7.5655   71.2455   67.9017 H   0  0  0  0  0  0  0  0  0  0  0  0
    6.3777   72.5930   67.9017 H   0  0  0  0  0  0  0  0  0  0  0  0
   -3.2047   69.7039   66.5539 H   0  0  0  0  0  0  0  0  0  0  0  0
   -2.0437   69.6684   65.1837 H   0  0  0  0  0  0  0  0  0  0  0  0
   -3.4668   68.5723   65.1837 H   0  0  0  0  0  0  0  0  0  0  0  0
   -2.4250   67.4427   68.4437 H   0  0  0  0  0  0  0  0  0  0  0  0
   -3.7325   67.2706   67.2241 H   0  0  0  0  0  0  0  0  0  0  0  0
   -2.3480   66.1261   67.2241 H   0  0  0  0  0  0  0  0  0  0  0  0
    4.5589   69.2339   62.1796 H   0  0  0  0  0  0  0  0  0  0  0  0
    2.2166   67.7471   61.6654 H   0  0  0  0  0  0  0  0  0  0  0  0
    5.5432   67.0403   61.4379 H   0  0  0  0  0  0  0  0  0  0  0  0
    5.7587   67.2710   63.1911 H   0  0  0  0  0  0  0  0  0  0  0  0
    3.2179   66.1020   62.5764 H   0  0  0  0  0  0  0  0  0  0  0  0
    4.5519   65.1842   61.9490 H   0  0  0  0  0  0  0  0  0  0  0  0
    5.1443   65.7308   64.5854 H   0  0  0  0  0  0  0  0  0  0  0  0
    3.2403   65.1479   65.7725 H   0  0  0  0  0  0  0  0  0  0  0  0
    2.4807   66.0238   64.4005 H   0  0  0  0  0  0  0  0  0  0  0  0
    2.5342   64.2283   64.4005 H   0  0  0  0  0  0  0  0  0  0  0  0
    5.1577   63.3009   64.7135 H   0  0  0  0  0  0  0  0  0  0  0  0
    4.2377   63.1863   63.1750 H   0  0  0  0  0  0  0  0  0  0  0  0
    5.9095   63.8433   63.1750 H   0  0  0  0  0  0  0  0  0  0  0  0
  2  1  2  0
  3  2  1  0
  4  3  2  0
  5  4  1  0
  6  5  2  0
  6  1  1  0
  7  1  1  0
  9  8  2  0
  9  7  1  0
 10  9  1  0
 11 10  1  0
 12 10  1  0
 13  5  1  0
 14 13  1  0
 15 14  2  0
 16 14  1  0
 17 16  1  0
 18 16  1  0
 19  3  1  0
 20 19  1  0
 21 19  1  0
 22 21  1  0
 23 22  1  0
 24 23  1  0
 25 23  1  0
  2 26  1  0
  4 27  1  0
  6 28  1  0
 11 29  1  0
 11 30  1  0
 11 31  1  0
 12 32  1  0
 12 33  1  0
 12 34  1  0
 17 35  1  0
 17 36  1  0
 17 37  1  0
 18 38  1  0
 18 39  1  0
 18 40  1  0
 19 41  1  6
 20 42  1  0
 21 43  1  0
 21 44  1  0
 22 45  1  0
 22 46  1  0
 23 47  1  0
 24 48  1  0
 24 49  1  0
 24 50  1  0
 25 51  1  0
 25 52  1  0
 25 53  1  0
M  CHG  1  22   1
M  END
>  <score>  (3) 
-8.699

$$$$
=
     RDKit          3D

 53 53  0  0  0  0  0  0  0  0999 V2000
    1.2060   68.5680   65.0810 C   0  0  0  0  0  0  0  0  0  0  0  0
    1.8550   68.4390   63.8500 C   0  0  0  0  0  0  0  0  0  0  0  0
    3.2440   68.6260   63.7640 C   0  0  0  0  0  0  0  0  0  0  0  0
    3.9490   68.9960   64.9200 C   0  0  0  0  0  0  0  0  0  0  0  0
    3.2810   69.1140   66.1420 C   0  0  0  0  0  0  0  0  0  0  0  0
    1.9050   68.9280   66.2280 C   0  0  0  0  0  0  0  0  0  0  0  0
   -0.1850   68.4070   65.2140 O   0  0  0  0  0  0  0  0  0  0  0  0
   -0.0030   66.8410   66.9100 O   0  0  0  0  0  0  0  0  0  0  0  0
   -0.6840   67.6310   66.2630 C   0  0  0  0  0  0  0  0  0  0  0  0
   -2.0370   67.8490   66.4920 N   0  0  0  0  0  0  0  0  0  0  0  0
   -2.7800   68.9140   65.8400 C   0  0  0  0  0  0  0  0  0  0  0  0
   -2.6540   67.2420   67.6570 C   0  0  0  0  0  0  0  0  0  0  0  0
    3.9470   69.4830   67.3240 O   0  0  0  0  0  0  0  0  0  0  0  0
    5.1770   70.1400   67.2280 C   0  0  0  0  0  0  0  0  0  0  0  0
    5.8900   70.1100   66.2280 O   0  0  0  0  0  0  0  0  0  0  0  0
    5.5030   70.8350   68.3850 N   0  0  0  0  0  0  0  0  0  0  0  0
    4.7400   70.7050   69.6160 C   0  0  0  0  0  0  0  0  0  0  0  0
    6.8260   71.4190   68.5000 C   0  0  0  0  0  0  0  0  0  0  0  0
    3.9520   68.4170   62.4520 C   0  0  2  0  0  0  0  0  0  0  0  0
    3.0240   68.0710   61.4050 O   0  0  0  0  0  0  0  0  0  0  0  0
    5.0020   67.2900   62.5040 C   0  0  0  0  0  0  0  0  0  0  0  0
    4.2580   65.9860   62.6800 N   0  0  0  0  0  4  0  0  0  0  0  0
    4.4310   65.2790   63.9830 C   0  0  0  0  0  0  0  0  0  0  0  0
    3.0650   65.1850   64.6520 C   0  0  0  0  0  0  0  0  0  0  0  0
    5.0250   63.8980   63.7400 C   0  0  0  0  0  0  0  0  0  0  0  0
    1.2771   68.1907   62.9476 H   0  0  0  0  0  0  0  0  0  0  0  0
    5.0297   69.1935   64.8640 H   0  0  0  0  0  0  0  0  0  0  0  0
    1.3799   69.0631   67.1851 H   0  0  0  0  0  0  0  0  0  0  0  0
   -3.2337   69.5644   66.6023 H   0  0  0  0  0  0  0  0  0  0  0  0
   -2.0978   69.5058   65.2121 H   0  0  0  0  0  0  0  0  0  0  0  0
   -3.5710   68.4780   65.2121 H   0  0  0  0  0  0  0  0  0  0  0  0
   -2.2164   67.6725   68.5698 H   0  0  0  0  0  0  0  0  0  0  0  0
   -3.7365   67.4370   67.6421 H   0  0  0  0  0  0  0  0  0  0  0  0
   -2.4767   66.1565   67.6421 H   0  0  0  0  0  0  0  0  0  0  0  0
    5.4131   70.8197   70.4784 H   0  0  0  0  0  0  0  0  0  0  0  0
    3.9640   71.4839   69.6504 H   0  0  0  0  0  0  0  0  0  0  0  0
    4.2657   69.7131   69.6504 H   0  0  0  0  0  0  0  0  0  0  0  0
    7.0852   71.5334   69.5629 H   0  0  0  0  0  0  0  0  0  0  0  0
    7.5607   70.7615   68.0122 H   0  0  0  0  0  0  0  0  0  0  0  0
    6.8353   72.4049   68.0122 H   0  0  0  0  0  0  0  0  0  0  0  0
    4.4505   69.3757   62.2461 H   0  0  0  0  0  0  0  0  0  0  0  0
    2.1762   67.7549   61.8067 H   0  0  0  0  0  0  0  0  0  0  0  0
    5.5789   67.2702   61.5676 H   0  0  0  0  0  0  0  0  0  0  0  0
    5.7040   67.4516   63.3353 H   0  0  0  0  0  0  0  0  0  0  0  0
    3.2537   66.1829   62.5641 H   0  0  0  0  0  0  0  0  0  0  0  0
    4.6596   65.3512   61.9753 H   0  0  0  0  0  0  0  0  0  0  0  0
    5.1208   65.8276   64.6411 H   0  0  0  0  0  0  0  0  0  0  0  0
    3.1905   65.1936   65.7448 H   0  0  0  0  0  0  0  0  0  0  0  0
    2.4476   66.0428   64.3471 H   0  0  0  0  0  0  0  0  0  0  0  0
    2.5709   64.2507   64.3471 H   0  0  0  0  0  0  0  0  0  0  0  0
    5.2334   63.4135   64.7053 H   0  0  0  0  0  0  0  0  0  0  0  0
    4.3103   63.2866   63.1696 H   0  0  0  0  0  0  0  0  0  0  0  0
    5.9604   63.9964   63.1696 H   0  0  0  0  0  0  0  0  0  0  0  0
  2  1  2  0
  3  2  1  0
  4  3  2  0
  5  4  1  0
  6  5  2  0
  6  1  1  0
  7  1  1  0
  9  8  2  0
  9  7  1  0
 10  9  1  0
 11 10  1  0
 12 10  1  0
 13  5  1  0
 14 13  1  0
 15 14  2  0
 16 14  1  0
 17 16  1  0
 18 16  1  0
 19  3  1  0
 20 19  1  0
 21 19  1  0
 22 21  1  0
 23 22  1  0
 24 23  1  0
 25 23  1  0
  2 26  1  0
  4 27  1  0
  6 28  1  0
 11 29  1  0
 11 30  1  0
 11 31  1  0
 12 32  1  0
 12 33  1  0
 12 34  1  0
 17 35  1  0
 17 36  1  0
 17 37  1  0
 18 38  1  0
 18 39  1  0
 18 40  1  0
 19 41  1  6
 20 42  1  0
 21 43  1  0
 21 44  1  0
 22 45  1  0
 22 46  1  0
 23 47  1  0
 24 48  1  0
 24 49  1  0
 24 50  1  0
 25 51  1  0
 25 52  1  0
 25 53  1  0
M  CHG  1  22   1
M  END
>  <score>  (4) 
-8.604

$$$$
=
     RDKit          3D

 53 53  0  0  0  0  0  0  0  0999 V2000
    2.6260   68.4180   64.1360 C   0  0  0  0  0  0  0  0  0  0  0  0
    3.9340   68.9100   64.1930 C   0  0  0  0  0  0  0  0  0  0  0  0
    4.4410   69.4210   65.3980 C   0  0  0  0  0  0  0  0  0  0  0  0
    3.5960   69.4760   66.5180 C   0  0  0  0  0  0  0  0  0  0  0  0
    2.2940   68.9730   66.4410 C   0  0  0  0  0  0  0  0  0  0  0  0
    1.7910   68.4660   65.2470 C   0  0  0  0  0  0  0  0  0  0  0  0
    2.0690   67.9130   62.9470 O   0  0  0  0  0  0  0  0  0  0  0  0
    2.6400   69.0790   61.0290 O   0  0  0  0  0  0  0  0  0  0  0  0
    1.8140   68.7900   61.8890 C   0  0  0  0  0  0  0  0  0  0  0  0
    0.5220   69.3010   61.9200 N   0  0  0  0  0  0  0  0  0  0  0  0
   -0.4930   68.8100   62.8360 C   0  0  0  0  0  0  0  0  0  0  0  0
    0.0570   70.0900   60.7940 C   0  0  0  0  0  0  0  0  0  0  0  0
    1.4140   69.0070   67.5360 O   0  0  0  0  0  0  0  0  0  0  0  0
    0.6580   67.8680   67.8300 C   0  0  0  0  0  0  0  0  0  0  0  0
    1.1390   66.8220   68.2580 O   0  0  0  0  0  0  0  0  0  0  0  0
   -0.6970   68.0510   67.5910 N   0  0  0  0  0  0  0  0  0  0  0  0
   -1.2200   69.2240   66.9110 C   0  0  0  0  0  0  0  0  0  0  0  0
   -1.5830   66.9040   67.6810 C   0  0  0  0  0  0  0  0  0  0  0  0
    5.8710   69.8860   65.4770 C   0  0  2  0  0  0  0  0  0  0  0  0
    6.7530   68.8070   65.8470 O   0  0  0  0  0  0  0  0  0  0  0  0
    6.0860   71.0080   66.5120 C   0  0  0  0  0  0  0  0  0  0  0  0
    6.7230   70.3830   67.7320 N   0  0  0  0  0  4  0  0  0  0  0  0
    6.4650   71.0450   69.0450 C   0  0  0  0  0  0  0  0  0  0  0  0
    5.0790   70.6250   69.5180 C   0  0  0  0  0  0  0  0  0  0  0  0
    7.5400   70.6350   70.0430 C   0  0  0  0  0  0  0  0  0  0  0  0
    4.5659   68.8965   63.2927 H   0  0  0  0  0  0  0  0  0  0  0  0
    3.9594   69.9160   67.4584 H   0  0  0  0  0  0  0  0  0  0  0  0
    0.7522   68.1098   65.1830 H   0  0  0  0  0  0  0  0  0  0  0  0
   -0.1605   68.9708   63.8721 H   0  0  0  0  0  0  0  0  0  0  0  0
   -1.4346   69.3522   62.6647 H   0  0  0  0  0  0  0  0  0  0  0  0
   -0.6524   67.7352   62.6647 H   0  0  0  0  0  0  0  0  0  0  0  0
   -0.4690   70.9825   61.1639 H   0  0  0  0  0  0  0  0  0  0  0  0
    0.9175   70.3988   60.1823 H   0  0  0  0  0  0  0  0  0  0  0  0
   -0.6300   69.4867   60.1823 H   0  0  0  0  0  0  0  0  0  0  0  0
   -1.5496   69.9632   67.6560 H   0  0  0  0  0  0  0  0  0  0  0  0
   -0.4328   69.6641   66.2812 H   0  0  0  0  0  0  0  0  0  0  0  0
   -2.0735   68.9326   66.2812 H   0  0  0  0  0  0  0  0  0  0  0  0
   -1.7674   66.6653   68.7388 H   0  0  0  0  0  0  0  0  0  0  0  0
   -2.5371   67.1380   67.1862 H   0  0  0  0  0  0  0  0  0  0  0  0
   -1.1156   66.0399   67.1862 H   0  0  0  0  0  0  0  0  0  0  0  0
    6.0993   70.2648   64.4698 H   0  0  0  0  0  0  0  0  0  0  0  0
    6.8033   68.7455   66.8338 H   0  0  0  0  0  0  0  0  0  0  0  0
    6.7491   71.7809   66.0961 H   0  0  0  0  0  0  0  0  0  0  0  0
    5.1289   71.4826   66.7742 H   0  0  0  0  0  0  0  0  0  0  0  0
    6.3801   69.4141   67.7997 H   0  0  0  0  0  0  0  0  0  0  0  0
    7.7377   70.4747   67.5808 H   0  0  0  0  0  0  0  0  0  0  0  0
    6.4995   72.1403   68.9494 H   0  0  0  0  0  0  0  0  0  0  0  0
    5.0536   70.6173   70.6177 H   0  0  0  0  0  0  0  0  0  0  0  0
    4.3309   71.3368   69.1389 H   0  0  0  0  0  0  0  0  0  0  0  0
    4.8518   69.6177   69.1389 H   0  0  0  0  0  0  0  0  0  0  0  0
    7.1638   70.7785   71.0667 H   0  0  0  0  0  0  0  0  0  0  0  0
    7.7962   69.5760   69.8915 H   0  0  0  0  0  0  0  0  0  0  0  0
    8.4363   71.2544   69.8915 H   0  0  0  0  0  0  0  0  0  0  0  0
  2  1  2  0
  3  2  1  0
  4  3  2  0
  5  4  1  0
  6  5  2  0
  6  1  1  0
  7  1  1  0
  9  8  2  0
  9  7  1  0
 10  9  1  0
 11 10  1  0
 12 10  1  0
 13  5  1  0
 14 13  1  0
 15 14  2  0
 16 14  1  0
 17 16  1  0
 18 16  1  0
 19  3  1  0
 20 19  1  0
 21 19  1  0
 22 21  1  0
 23 22  1  0
 24 23  1  0
 25 23  1  0
  2 26  1  0
  4 27  1  0
  6 28  1  0
 11 29  1  0
 11 30  1  0
 11 31  1  0
 12 32  1  0
 12 33  1  0
 12 34  1  0
 17 35  1  0
 17 36  1  0
 17 37  1  0
 18 38  1  0
 18 39  1  0
 18 40  1  0
 19 41  1  6
 20 42  1  0
 21 43  1  0
 21 44  1  0
 22 45  1  0
 22 46  1  0
 23 47  1  0
 24 48  1  0
 24 49  1  0
 24 50  1  0
 25 51  1  0
 25 52  1  0
 25 53  1  0
M  CHG  1  22   1
M  END
>  <score>  (5) 
-8.5

$$$$
=
     RDKit          3D

 53 53  0  0  0  0  0  0  0  0999 V2000
    3.3980   69.7230   67.2110 C   0  0  0  0  0  0  0  0  0  0  0  0
    2.2690   69.2540   67.8900 C   0  0  0  0  0  0  0  0  0  0  0  0
    1.5520   68.1560   67.3880 C   0  0  0  0  0  0  0  0  0  0  0  0
    1.9590   67.5820   66.1730 C   0  0  0  0  0  0  0  0  0  0  0  0
    3.0930   68.0630   65.5140 C   0  0  0  0  0  0  0  0  0  0  0  0
    3.8040   69.1500   66.0110 C   0  0  0  0  0  0  0  0  0  0  0  0
    4.1370   70.8300   67.6660 O   0  0  0  0  0  0  0  0  0  0  0  0
    4.3060   70.5730   69.9610 O   0  0  0  0  0  0  0  0  0  0  0  0
    4.8410   70.7300   68.8690 C   0  0  0  0  0  0  0  0  0  0  0  0
    6.2160   70.8320   68.6910 N   0  0  0  0  0  0  0  0  0  0  0  0
    6.8390   70.8350   67.3780 C   0  0  0  0  0  0  0  0  0  0  0  0
    7.0860   70.5770   69.8250 C   0  0  0  0  0  0  0  0  0  0  0  0
    3.5350   67.5190   64.2950 O   0  0  0  0  0  0  0  0  0  0  0  0
    2.9790   67.9940   63.1030 C   0  0  0  0  0  0  0  0  0  0  0  0
    1.7760   67.9750   62.8580 O   0  0  0  0  0  0  0  0  0  0  0  0
    3.9350   68.4940   62.2310 N   0  0  0  0  0  0  0  0  0  0  0  0
    5.3620   68.3370   62.4600 C   0  0  0  0  0  0  0  0  0  0  0  0
    3.5290   68.8600   60.8860 C   0  0  0  0  0  0  0  0  0  0  0  0
    0.3800   67.6080   68.1560 C   0  0  2  0  0  0  0  0  0  0  0  0
    0.7370   66.4100   68.8740 O   0  0  0  0  0  0  0  0  0  0  0  0
   -0.8160   67.2420   67.2550 C   0  0  0  0  0  0  0  0  0  0  0  0
   -1.8400   68.3450   67.3920 N   0  0  0  0  0  4  0  0  0  0  0  0
   -2.1650   69.1250   66.1600 C   0  0  0  0  0  0  0  0  0  0  0  0
   -1.1460   68.7560   65.0890 C   0  0  0  0  0  0  0  0  0  0  0  0
   -3.5840   68.8020   65.7110 C   0  0  0  0  0  0  0  0  0  0  0  0
    1.9423   69.7457   68.8182 H   0  0  0  0  0  0  0  0  0  0  0  0
    1.3834   66.7513   65.7388 H   0  0  0  0  0  0  0  0  0  0  0  0
    4.6715   69.5490   65.4649 H   0  0  0  0  0  0  0  0  0  0  0  0
    7.9331   70.8403   67.4913 H   0  0  0  0  0  0  0  0  0  0  0  0
    6.5320   69.9354   66.8244 H   0  0  0  0  0  0  0  0  0  0  0  0
    6.5234   71.7316   66.8244 H   0  0  0  0  0  0  0  0  0  0  0  0
    6.5284   70.7404   70.7590 H   0  0  0  0  0  0  0  0  0  0  0  0
    7.4418   69.5368   69.7876 H   0  0  0  0  0  0  0  0  0  0  0  0
    7.9470   71.2606   69.7876 H   0  0  0  0  0  0  0  0  0  0  0  0
    5.5595   68.3153   63.5419 H   0  0  0  0  0  0  0  0  0  0  0  0
    5.7049   67.3957   62.0057 H   0  0  0  0  0  0  0  0  0  0  0  0
    5.9013   69.1812   62.0057 H   0  0  0  0  0  0  0  0  0  0  0  0
    2.7128   69.5957   60.9368 H   0  0  0  0  0  0  0  0  0  0  0  0
    4.3846   69.2979   60.3511 H   0  0  0  0  0  0  0  0  0  0  0  0
    3.1819   67.9637   60.3511 H   0  0  0  0  0  0  0  0  0  0  0  0
    0.0917   68.4178   68.8424 H   0  0  0  0  0  0  0  0  0  0  0  0
    0.6860   66.5813   69.8477 H   0  0  0  0  0  0  0  0  0  0  0  0
   -0.4874   67.1620   66.2083 H   0  0  0  0  0  0  0  0  0  0  0  0
   -1.2454   66.2744   67.5540 H   0  0  0  0  0  0  0  0  0  0  0  0
   -2.7144   67.9173   67.7287 H   0  0  0  0  0  0  0  0  0  0  0  0
   -1.4144   69.0269   68.0360 H   0  0  0  0  0  0  0  0  0  0  0  0
   -2.1147   70.2070   66.3518 H   0  0  0  0  0  0  0  0  0  0  0  0
   -0.2154   68.4190   65.5689 H   0  0  0  0  0  0  0  0  0  0  0  0
   -1.5493   67.9468   64.4624 H   0  0  0  0  0  0  0  0  0  0  0  0
   -0.9377   69.6358   64.4624 H   0  0  0  0  0  0  0  0  0  0  0  0
   -4.2238   68.6564   66.5939 H   0  0  0  0  0  0  0  0  0  0  0  0
   -3.9759   69.6339   65.1074 H   0  0  0  0  0  0  0  0  0  0  0  0
   -3.5772   67.8824   65.1074 H   0  0  0  0  0  0  0  0  0  0  0  0
  2  1  2  0
  3  2  1  0
  4  3  2  0
  5  4  1  0
  6  5  2  0
  6  1  1  0
  7  1  1  0
  9  8  2  0
  9  7  1  0
 10  9  1  0
 11 10  1  0
 12 10  1  0
 13  5  1  0
 14 13  1  0
 15 14  2  0
 16 14  1  0
 17 16  1  0
 18 16  1  0
 19  3  1  0
 20 19  1  0
 21 19  1  0
 22 21  1  0
 23 22  1  0
 24 23  1  0
 25 23  1  0
  2 26  1  0
  4 27  1  0
  6 28  1  0
 11 29  1  0
 11 30  1  0
 11 31  1  0
 12 32  1  0
 12 33  1  0
 12 34  1  0
 17 35  1  0
 17 36  1  0
 17 37  1  0
 18 38  1  0
 18 39  1  0
 18 40  1  0
 19 41  1  1
 20 42  1  0
 21 43  1  0
 21 44  1  0
 22 45  1  0
 22 46  1  0
 23 47  1  0
 24 48  1  0
 24 49  1  0
 24 50  1  0
 25 51  1  0
 25 52  1  0
 25 53  1  0
M  CHG  1  22   1
M  END
>  <score>  (6) 
-8.329

$$$$
=
     RDKit          3D

 53 53  0  0  0  0  0  0  0  0999 V2000
    0.7780   66.8930   68.7380 C   0  0  0  0  0  0  0  0  0  0  0  0
   -0.4380   67.2500   68.1470 C   0  0  0  0  0  0  0  0  0  0  0  0
   -0.5890   68.5140   67.5560 C   0  0  0  0  0  0  0  0  0  0  0  0
    0.4810   69.4210   67.6190 C   0  0  0  0  0  0  0  0  0  0  0  0
    1.6900   69.0420   68.2070 C   0  0  0  0  0  0  0  0  0  0  0  0
    1.8410   67.7890   68.7930 C   0  0  0  0  0  0  0  0  0  0  0  0
    0.9710   65.6450   69.3570 O   0  0  0  0  0  0  0  0  0  0  0  0
   -0.1680   66.2760   71.2730 O   0  0  0  0  0  0  0  0  0  0  0  0
    0.5130   65.4560   70.6640 C   0  0  0  0  0  0  0  0  0  0  0  0
    0.9160   64.2390   71.2000 N   0  0  0  0  0  0  0  0  0  0  0  0
    1.5640   63.2090   70.4050 C   0  0  0  0  0  0  0  0  0  0  0  0
    0.3760   63.8290   72.4830 C   0  0  0  0  0  0  0  0  0  0  0  0
    2.7870   69.9170   68.2930 O   0  0  0  0  0  0  0  0  0  0  0  0
    3.7920   69.8360   67.3240 C   0  0  0  0  0  0  0  0  0  0  0  0
    3.6170   69.3780   66.1970 O   0  0  0  0  0  0  0  0  0  0  0  0
    5.0070   70.3350   67.7720 N   0  0  0  0  0  0  0  0  0  0  0  0
    5.2390   70.6970   69.1600 C   0  0  0  0  0  0  0  0  0  0  0  0
    6.1840   70.1570   66.9410 C   0  0  0  0  0  0  0  0  0  0  0  0
   -1.8750   68.8720   66.8600 C   0  0  2  0  0  0  0  0  0  0  0  0
   -2.9500   68.0010   67.2650 O   0  0  0  0  0  0  0  0  0  0  0  0
   -1.7800   68.7730   65.3250 C   0  0  0  0  0  0  0  0  0  0  0  0
   -0.4340   68.1710   64.9930 N   0  0  0  0  0  4  0  0  0  0  0  0
    0.3950   68.8840   63.9760 C   0  0  0  0  0  0  0  0  0  0  0  0
    1.6260   68.0320   63.6940 C   0  0  0  0  0  0  0  0  0  0  0  0
   -0.4260   69.1080   62.7130 C   0  0  0  0  0  0  0  0  0  0  0  0
   -1.2774   66.5391   68.1453 H   0  0  0  0  0  0  0  0  0  0  0  0
    0.3668   70.4333   67.2040 H   0  0  0  0  0  0  0  0  0  0  0  0
    2.7825   67.5122   69.2901 H   0  0  0  0  0  0  0  0  0  0  0  0
    2.0295   62.4691   71.0727 H   0  0  0  0  0  0  0  0  0  0  0  0
    0.8162   62.7110   69.7703 H   0  0  0  0  0  0  0  0  0  0  0  0
    2.3366   63.6675   69.7703 H   0  0  0  0  0  0  0  0  0  0  0  0
    0.9698   64.2799   73.2917 H   0  0  0  0  0  0  0  0  0  0  0  0
   -0.6687   64.1635   72.5649 H   0  0  0  0  0  0  0  0  0  0  0  0
    0.4175   62.7328   72.5649 H   0  0  0  0  0  0  0  0  0  0  0  0
    4.7630   69.9543   69.8171 H   0  0  0  0  0  0  0  0  0  0  0  0
    6.3210   70.7208   69.3568 H   0  0  0  0  0  0  0  0  0  0  0  0
    4.8086   71.6900   69.3568 H   0  0  0  0  0  0  0  0  0  0  0  0
    7.0682   70.0233   67.5815 H   0  0  0  0  0  0  0  0  0  0  0  0
    6.0535   69.2684   66.3059 H   0  0  0  0  0  0  0  0  0  0  0  0
    6.3221   71.0445   66.3059 H   0  0  0  0  0  0  0  0  0  0  0  0
   -2.0708   69.9146   67.1508 H   0  0  0  0  0  0  0  0  0  0  0  0
   -2.9923   67.9667   68.2535 H   0  0  0  0  0  0  0  0  0  0  0  0
   -2.5848   68.1300   64.9392 H   0  0  0  0  0  0  0  0  0  0  0  0
   -1.8852   69.7665   64.8646 H   0  0  0  0  0  0  0  0  0  0  0  0
    0.1118   68.1300   65.8655 H   0  0  0  0  0  0  0  0  0  0  0  0
   -0.6469   67.2559   64.5708 H   0  0  0  0  0  0  0  0  0  0  0  0
    0.7123   69.8703   64.3456 H   0  0  0  0  0  0  0  0  0  0  0  0
    2.0801   67.7177   64.6453 H   0  0  0  0  0  0  0  0  0  0  0  0
    1.3322   67.1430   63.1165 H   0  0  0  0  0  0  0  0  0  0  0  0
    2.3545   68.6201   63.1165 H   0  0  0  0  0  0  0  0  0  0  0  0
   -1.4534   69.3883   62.9884 H   0  0  0  0  0  0  0  0  0  0  0  0
    0.0276   69.9152   62.1192 H   0  0  0  0  0  0  0  0  0  0  0  0
   -0.4452   68.1823   62.1192 H   0  0  0  0  0  0  0  0  0  0  0  0
  2  1  2  0
  3  2  1  0
  4  3  2  0
  5  4  1  0
  6  5  2  0
  6  1  1  0
  7  1  1  0
  9  8  2  0
  9  7  1  0
 10  9  1  0
 11 10  1  0
 12 10  1  0
 13  5  1  0
 14 13  1  0
 15 14  2  0
 16 14  1  0
 17 16  1  0
 18 16  1  0
 19  3  1  0
 20 19  1  0
 21 19  1  0
 22 21  1  0
 23 22  1  0
 24 23  1  0
 25 23  1  0
  2 26  1  0
  4 27  1  0
  6 28  1  0
 11 29  1  0
 11 30  1  0
 11 31  1  0
 12 32  1  0
 12 33  1  0
 12 34  1  0
 17 35  1  0
 17 36  1  0
 17 37  1  0
 18 38  1  0
 18 39  1  0
 18 40  1  0
 19 41  1  6
 20 42  1  0
 21 43  1  0
 21 44  1  0
 22 45  1  0
 22 46  1  0
 23 47  1  0
 24 48  1  0
 24 49  1  0
 24 50  1  0
 25 51  1  0
 25 52  1  0
 25 53  1  0
M  CHG  1  22   1
M  END
>  <score>  (7) 
-7.688

$$$$
=
     RDKit          3D

 53 53  0  0  0  0  0  0  0  0999 V2000
    2.7300   69.4120   67.2280 C   0  0  0  0  0  0  0  0  0  0  0  0
    1.6890   68.7900   67.9250 C   0  0  0  0  0  0  0  0  0  0  0  0
    1.1020   67.6210   67.4160 C   0  0  0  0  0  0  0  0  0  0  0  0
    1.5420   67.1270   66.1780 C   0  0  0  0  0  0  0  0  0  0  0  0
    2.5870   67.7600   65.5000 C   0  0  0  0  0  0  0  0  0  0  0  0
    3.1700   68.9190   66.0040 C   0  0  0  0  0  0  0  0  0  0  0  0
    3.3370   70.5940   67.6880 O   0  0  0  0  0  0  0  0  0  0  0  0
    3.7500   70.3520   69.9540 O   0  0  0  0  0  0  0  0  0  0  0  0
    4.1630   70.5400   68.8140 C   0  0  0  0  0  0  0  0  0  0  0  0
    5.5040   70.7270   68.5010 N   0  0  0  0  0  0  0  0  0  0  0  0
    5.9910   70.7670   67.1320 C   0  0  0  0  0  0  0  0  0  0  0  0
    6.4980   70.5290   69.5400 C   0  0  0  0  0  0  0  0  0  0  0  0
    3.0580   67.3020   64.2580 O   0  0  0  0  0  0  0  0  0  0  0  0
    2.6240   67.9420   63.0930 C   0  0  0  0  0  0  0  0  0  0  0  0
    1.4650   68.3000   62.9040 O   0  0  0  0  0  0  0  0  0  0  0  0
    3.6490   68.1350   62.1770 N   0  0  0  0  0  0  0  0  0  0  0  0
    4.9650   67.5410   62.3390 C   0  0  0  0  0  0  0  0  0  0  0  0
    3.3170   68.6280   60.8530 C   0  0  0  0  0  0  0  0  0  0  0  0
    0.0300   66.9130   68.2020 C   0  0  2  0  0  0  0  0  0  0  0  0
   -1.1750   67.7000   68.2700 O   0  0  0  0  0  0  0  0  0  0  0  0
    0.4450   66.6120   69.6560 C   0  0  0  0  0  0  0  0  0  0  0  0
    1.5930   65.6300   69.6050 N   0  0  0  0  0  4  0  0  0  0  0  0
    1.6710   64.6220   70.7030 C   0  0  0  0  0  0  0  0  0  0  0  0
    0.4370   63.7330   70.6120 C   0  0  0  0  0  0  0  0  0  0  0  0
    2.9520   63.8090   70.5600 C   0  0  0  0  0  0  0  0  0  0  0  0
    1.3300   69.2173   68.8729 H   0  0  0  0  0  0  0  0  0  0  0  0
    1.0627   66.2389   65.7403 H   0  0  0  0  0  0  0  0  0  0  0  0
    3.9640   69.4355   65.4447 H   0  0  0  0  0  0  0  0  0  0  0  0
    7.0873   70.8570   67.1353 H   0  0  0  0  0  0  0  0  0  0  0  0
    5.7006   69.8420   66.6124 H   0  0  0  0  0  0  0  0  0  0  0  0
    5.5536   71.6322   66.6124 H   0  0  0  0  0  0  0  0  0  0  0  0
    6.0210   70.6240   70.5266 H   0  0  0  0  0  0  0  0  0  0  0  0
    6.9377   69.5256   69.4404 H   0  0  0  0  0  0  0  0  0  0  0  0
    7.2886   71.2873   69.4404 H   0  0  0  0  0  0  0  0  0  0  0  0
    5.1917   67.4387   63.4105 H   0  0  0  0  0  0  0  0  0  0  0  0
    4.9803   66.5487   61.8646 H   0  0  0  0  0  0  0  0  0  0  0  0
    5.7193   68.1859   61.8646 H   0  0  0  0  0  0  0  0  0  0  0  0
    2.7046   69.5373   60.9432 H   0  0  0  0  0  0  0  0  0  0  0  0
    4.2423   68.8619   60.3061 H   0  0  0  0  0  0  0  0  0  0  0  0
    2.7524   67.8585   60.3061 H   0  0  0  0  0  0  0  0  0  0  0  0
   -0.1364   65.9685   67.6632 H   0  0  0  0  0  0  0  0  0  0  0  0
   -1.4141   67.8562   69.2179 H   0  0  0  0  0  0  0  0  0  0  0  0
    0.7649   67.5386   70.1551 H   0  0  0  0  0  0  0  0  0  0  0  0
   -0.3998   66.1924   70.2218 H   0  0  0  0  0  0  0  0  0  0  0  0
    1.5228   65.1157   68.7153 H   0  0  0  0  0  0  0  0  0  0  0  0
    2.4416   66.2046   69.7083 H   0  0  0  0  0  0  0  0  0  0  0  0
    1.6949   65.1112   71.6880 H   0  0  0  0  0  0  0  0  0  0  0  0
    0.0898   63.4829   71.6253 H   0  0  0  0  0  0  0  0  0  0  0  0
   -0.3598   64.2659   70.0725 H   0  0  0  0  0  0  0  0  0  0  0  0
    0.6901   62.8084   70.0725 H   0  0  0  0  0  0  0  0  0  0  0  0
    3.3424   63.5612   71.5581 H   0  0  0  0  0  0  0  0  0  0  0  0
    2.7379   62.8811   70.0093 H   0  0  0  0  0  0  0  0  0  0  0  0
    3.7004   64.3978   70.0093 H   0  0  0  0  0  0  0  0  0  0  0  0
  2  1  2  0
  3  2  1  0
  4  3  2  0
  5  4  1  0
  6  5  2  0
  6  1  1  0
  7  1  1  0
  9  8  2  0
  9  7  1  0
 10  9  1  0
 11 10  1  0
 12 10  1  0
 13  5  1  0
 14 13  1  0
 15 14  2  0
 16 14  1  0
 17 16  1  0
 18 16  1  0
 19  3  1  0
 20 19  1  0
 21 19  1  0
 22 21  1  0
 23 22  1  0
 24 23  1  0
 25 23  1  0
  2 26  1  0
  4 27  1  0
  6 28  1  0
 11 29  1  0
 11 30  1  0
 11 31  1  0
 12 32  1  0
 12 33  1  0
 12 34  1  0
 17 35  1  0
 17 36  1  0
 17 37  1  0
 18 38  1  0
 18 39  1  0
 18 40  1  0
 19 41  1  6
 20 42  1  0
 21 43  1  0
 21 44  1  0
 22 45  1  0
 22 46  1  0
 23 47  1  0
 24 48  1  0
 24 49  1  0
 24 50  1  0
 25 51  1  0
 25 52  1  0
 25 53  1  0
M  CHG  1  22   1
M  END
>  <score>  (8) 
-7.663

$$$$
=
     RDKit          3D

 53 53  0  0  0  0  0  0  0  0999 V2000
    0.4990   63.8750   72.4980 C   0  0  0  0  0  0  0  0  0  0  0  0
    0.0800   64.9740   71.7410 C   0  0  0  0  0  0  0  0  0  0  0  0
    0.8230   65.3810   70.6220 C   0  0  0  0  0  0  0  0  0  0  0  0
    2.0130   64.7020   70.3160 C   0  0  0  0  0  0  0  0  0  0  0  0
    2.4110   63.6020   71.0820 C   0  0  0  0  0  0  0  0  0  0  0  0
    1.6750   63.1970   72.1910 C   0  0  0  0  0  0  0  0  0  0  0  0
   -0.2020   63.4400   73.6370 O   0  0  0  0  0  0  0  0  0  0  0  0
   -0.1100   65.1980   75.1430 O   0  0  0  0  0  0  0  0  0  0  0  0
    0.0900   64.0160   74.8770 C   0  0  0  0  0  0  0  0  0  0  0  0
    0.6330   63.1050   75.7730 N   0  0  0  0  0  0  0  0  0  0  0  0
    0.6920   61.6780   75.5020 C   0  0  0  0  0  0  0  0  0  0  0  0
    0.8280   63.5140   77.1520 C   0  0  0  0  0  0  0  0  0  0  0  0
    3.5940   62.8930   70.8130 O   0  0  0  0  0  0  0  0  0  0  0  0
    3.5090   61.5330   70.5000 C   0  0  0  0  0  0  0  0  0  0  0  0
    2.8860   61.0920   69.5380 O   0  0  0  0  0  0  0  0  0  0  0  0
    4.2100   60.7350   71.3930 N   0  0  0  0  0  0  0  0  0  0  0  0
    4.7810   61.2560   72.6250 C   0  0  0  0  0  0  0  0  0  0  0  0
    4.0700   59.2930   71.3010 C   0  0  0  0  0  0  0  0  0  0  0  0
    0.3340   66.5200   69.7670 C   0  0  2  0  0  0  0  0  0  0  0  0
   -0.5760   66.0570   68.7490 O   0  0  0  0  0  0  0  0  0  0  0  0
    1.4720   67.2620   69.0390 C   0  0  0  0  0  0  0  0  0  0  0  0
    0.8520   68.4220   68.2950 N   0  0  0  0  0  4  0  0  0  0  0  0
    1.4140   68.7420   66.9500 C   0  0  0  0  0  0  0  0  0  0  0  0
    2.7600   69.4260   67.1540 C   0  0  0  0  0  0  0  0  0  0  0  0
    1.5590   67.4610   66.1390 C   0  0  0  0  0  0  0  0  0  0  0  0
   -0.8325   65.5197   72.0229 H   0  0  0  0  0  0  0  0  0  0  0  0
    2.6338   65.0361   69.4716 H   0  0  0  0  0  0  0  0  0  0  0  0
    2.0162   62.3567   72.8135 H   0  0  0  0  0  0  0  0  0  0  0  0
    0.7149   61.1249   76.4526 H   0  0  0  0  0  0  0  0  0  0  0  0
   -0.1945   61.3775   74.9242 H   0  0  0  0  0  0  0  0  0  0  0  0
    1.6003   61.4518   74.9242 H   0  0  0  0  0  0  0  0  0  0  0  0
    0.4532   62.7280   77.8241 H   0  0  0  0  0  0  0  0  0  0  0  0
    1.9000   63.6755   77.3385 H   0  0  0  0  0  0  0  0  0  0  0  0
    0.2786   64.4485   77.3385 H   0  0  0  0  0  0  0  0  0  0  0  0
    4.2760   60.7952   73.4868 H   0  0  0  0  0  0  0  0  0  0  0  0
    5.8548   61.0199   72.6600 H   0  0  0  0  0  0  0  0  0  0  0  0
    4.6441   62.3469   72.6600 H   0  0  0  0  0  0  0  0  0  0  0  0
    4.0283   58.8634   72.3128 H   0  0  0  0  0  0  0  0  0  0  0  0
    3.1439   59.0483   70.7603 H   0  0  0  0  0  0  0  0  0  0  0  0
    4.9318   58.8747   70.7603 H   0  0  0  0  0  0  0  0  0  0  0  0
   -0.1628   67.2056   70.4693 H   0  0  0  0  0  0  0  0  0  0  0  0
   -1.3716   65.6522   69.1770 H   0  0  0  0  0  0  0  0  0  0  0  0
    2.2063   67.6330   69.7691 H   0  0  0  0  0  0  0  0  0  0  0  0
    1.9922   66.5877   68.3428 H   0  0  0  0  0  0  0  0  0  0  0  0
   -0.1490   68.2128   68.1718 H   0  0  0  0  0  0  0  0  0  0  0  0
    1.0545   69.2498   68.8735 H   0  0  0  0  0  0  0  0  0  0  0  0
    0.7460   69.4149   66.3923 H   0  0  0  0  0  0  0  0  0  0  0  0
    2.9601   69.5277   68.2308 H   0  0  0  0  0  0  0  0  0  0  0  0
    3.5527   68.8214   66.6892 H   0  0  0  0  0  0  0  0  0  0  0  0
    2.7389   70.4228   66.6892 H   0  0  0  0  0  0  0  0  0  0  0  0
    1.6560   66.6039   66.8216 H   0  0  0  0  0  0  0  0  0  0  0  0
    0.6704   67.3260   65.5048 H   0  0  0  0  0  0  0  0  0  0  0  0
    2.4553   67.5280   65.5048 H   0  0  0  0  0  0  0  0  0  0  0  0
  2  1  2  0
  3  2  1  0
  4  3  2  0
  5  4  1  0
  6  5  2  0
  6  1  1  0
  7  1  1  0
  9  8  2  0
  9  7  1  0
 10  9  1  0
 11 10  1  0
 12 10  1  0
 13  5  1  0
 14 13  1  0
 15 14  2  0
 16 14  1  0
 17 16  1  0
 18 16  1  0
 19  3  1  0
 20 19  1  0
 21 19  1  0
 22 21  1  0
 23 22  1  0
 24 23  1  0
 25 23  1  0
  2 26  1  0
  4 27  1  0
  6 28  1  0
 11 29  1  0
 11 30  1  0
 11 31  1  0
 12 32  1  0
 12 33  1  0
 12 34  1  0
 17 35  1  0
 17 36  1  0
 17 37  1  0
 18 38  1  0
 18 39  1  0
 18 40  1  0
 19 41  1  1
 20 42  1  0
 21 43  1  0
 21 44  1  0
 22 45  1  0
 22 46  1  0
 23 47  1  0
 24 48  1  0
 24 49  1  0
 24 50  1  0
 25 51  1  0
 25 52  1  0
 25 53  1  0
M  CHG  1  22   1
M  END
>  <score>  (9) 
-7.539

$$$$
