=
     RDKit          3D

 22 23  0  0  0  0  0  0  0  0999 V2000
    3.1980   69.4950   66.9750 C   0  0  0  0  0  0  0  0  0  0  0  0
    3.0490   69.0820   65.6400 C   0  0  0  0  0  0  0  0  0  0  0  0
    4.1220   69.1450   64.7270 C   0  0  0  0  0  0  0  0  0  0  0  0
    5.3760   69.6180   65.1210 C   0  0  0  0  0  0  0  0  0  0  0  0
    5.5180   70.0160   66.4340 C   0  0  0  0  0  0  0  0  0  0  0  0
    4.4560   69.9540   67.3390 C   0  0  0  0  0  0  0  0  0  0  0  0
    4.9790   70.4460   68.6230 C   0  0  0  0  0  0  0  0  0  0  0  0
    4.3910   70.5540   69.6750 O   0  0  0  0  0  0  0  0  0  0  0  0
    6.4650   70.8040   68.3550 C   0  0  0  0  0  0  0  0  0  0  0  0
    7.2560   71.2460   69.1580 O   0  0  0  0  0  0  0  0  0  0  0  0
    6.6770   70.5080   67.0260 N   0  0  0  0  0  0  0  0  0  0  0  0
    0.8510   68.6870   67.3370 C   0  0  0  0  0  0  0  0  0  0  0  0
    2.0480   69.4060   67.9400 C   0  0  0  0  0  0  0  0  0  0  0  0
    2.0746   68.7014   65.2999 H   0  0  0  0  0  0  0  0  0  0  0  0
    3.9691   68.8165   63.6884 H   0  0  0  0  0  0  0  0  0  0  0  0
    6.2161   69.6709   64.4129 H   0  0  0  0  0  0  0  0  0  0  0  0
    7.5742   70.6342   66.5360 H   0  0  0  0  0  0  0  0  0  0  0  0
    0.2100   68.3020   68.1437 H   0  0  0  0  0  0  0  0  0  0  0  0
    0.2762   69.3895   66.7156 H   0  0  0  0  0  0  0  0  0  0  0  0
    1.2011   67.8496   66.7156 H   0  0  0  0  0  0  0  0  0  0  0  0
    1.7440   70.4241   68.2247 H   0  0  0  0  0  0  0  0  0  0  0  0
    2.3835   68.8308   68.8155 H   0  0  0  0  0  0  0  0  0  0  0  0
  2  1  2  0
  3  2  1  0
  4  3  2  0
  5  4  1  0
  6  1  1  0
  6  5  2  0
  7  6  1  0
  8  7  2  0
  9  7  1  0
 10  9  2  0
 11  9  1  0
 11  5  1  0
 13 12  1  0
 13  1  1  0
  2 14  1  0
  3 15  1  0
  4 16  1  0
 11 17  1  0
 12 18  1  0
 12 19  1  0
 12 20  1  0
 13 21  1  0
 13 22  1  0
M  END
>  <score>  (1) 
-8.268

$$$$
=
     RDKit          3D

 22 23  0  0  0  0  0  0  0  0999 V2000
    5.1880   70.2830   67.5750 C   0  0  0  0  0  0  0  0  0  0  0  0
    6.0520   70.1340   66.4770 C   0  0  0  0  0  0  0  0  0  0  0  0
    5.6090   69.5610   65.2670 C   0  0  0  0  0  0  0  0  0  0  0  0
    4.2900   69.1240   65.1160 C   0  0  0  0  0  0  0  0  0  0  0  0
    3.4460   69.2790   66.1950 C   0  0  0  0  0  0  0  0  0  0  0  0
    3.8840   69.8460   67.3940 C   0  0  0  0  0  0  0  0  0  0  0  0
    2.7210   69.8530   68.2970 C   0  0  0  0  0  0  0  0  0  0  0  0
    2.6620   70.2620   69.4330 O   0  0  0  0  0  0  0  0  0  0  0  0
    1.5620   69.2210   67.4820 C   0  0  0  0  0  0  0  0  0  0  0  0
    0.4270   69.0400   67.8630 O   0  0  0  0  0  0  0  0  0  0  0  0
    2.1030   68.9190   66.2510 N   0  0  0  0  0  0  0  0  0  0  0  0
    7.1890   70.8830   68.9640 C   0  0  0  0  0  0  0  0  0  0  0  0
    5.6720   70.9110   68.8530 C   0  0  0  0  0  0  0  0  0  0  0  0
    7.0955   70.4713   66.5630 H   0  0  0  0  0  0  0  0  0  0  0  0
    6.3130   69.4563   64.4283 H   0  0  0  0  0  0  0  0  0  0  0  0
    3.9398   68.6749   64.1749 H   0  0  0  0  0  0  0  0  0  0  0  0
    1.5825   68.4846   65.4756 H   0  0  0  0  0  0  0  0  0  0  0  0
    7.4790   70.8776   70.0251 H   0  0  0  0  0  0  0  0  0  0  0  0
    7.5759   69.9776   68.4736 H   0  0  0  0  0  0  0  0  0  0  0  0
    7.6090   71.7735   68.4736 H   0  0  0  0  0  0  0  0  0  0  0  0
    5.2436   70.3604   69.7035 H   0  0  0  0  0  0  0  0  0  0  0  0
    5.3508   71.9631   68.8570 H   0  0  0  0  0  0  0  0  0  0  0  0
  2  1  2  0
  3  2  1  0
  4  3  2  0
  5  4  1  0
  6  1  1  0
  6  5  2  0
  7  6  1  0
  8  7  2  0
  9  7  1  0
 10  9  2  0
 11  9  1  0
 11  5  1  0
 13 12  1  0
 13  1  1  0
  2 14  1  0
  3 15  1  0
  4 16  1  0
 11 17  1  0
 12 18  1  0
 12 19  1  0
 12 20  1  0
 13 21  1  0
 13 22  1  0
M  END
>  <score>  (2) 
-8.244

$$$$
=
     RDKit          3D

 22 23  0  0  0  0  0  0  0  0999 V2000
    3.2580   69.4640   66.8250 C   0  0  0  0  0  0  0  0  0  0  0  0
    3.8710   69.9590   67.9880 C   0  0  0  0  0  0  0  0  0  0  0  0
    5.2100   70.4030   67.9810 C   0  0  0  0  0  0  0  0  0  0  0  0
    5.9740   70.3700   66.8120 C   0  0  0  0  0  0  0  0  0  0  0  0
    5.3650   69.8890   65.6720 C   0  0  0  0  0  0  0  0  0  0  0  0
    4.0390   69.4490   65.6780 C   0  0  0  0  0  0  0  0  0  0  0  0
    3.7390   69.0230   64.3020 C   0  0  0  0  0  0  0  0  0  0  0  0
    2.7000   68.5790   63.8690 O   0  0  0  0  0  0  0  0  0  0  0  0
    5.0450   69.2630   63.5010 C   0  0  0  0  0  0  0  0  0  0  0  0
    5.2210   69.0390   62.3240 O   0  0  0  0  0  0  0  0  0  0  0  0
    5.9420   69.7790   64.4110 N   0  0  0  0  0  0  0  0  0  0  0  0
    1.4750   68.2820   68.1350 C   0  0  0  0  0  0  0  0  0  0  0  0
    1.8250   69.0100   66.8460 C   0  0  0  0  0  0  0  0  0  0  0  0
    3.2947   70.0013   68.9240 H   0  0  0  0  0  0  0  0  0  0  0  0
    5.6596   70.7812   68.9109 H   0  0  0  0  0  0  0  0  0  0  0  0
    7.0189   70.7137   66.8012 H   0  0  0  0  0  0  0  0  0  0  0  0
    6.9109   70.0475   64.1872 H   0  0  0  0  0  0  0  0  0  0  0  0
    1.7714   68.8985   68.9964 H   0  0  0  0  0  0  0  0  0  0  0  0
    0.3908   68.0997   68.1703 H   0  0  0  0  0  0  0  0  0  0  0  0
    2.0097   67.3214   68.1703 H   0  0  0  0  0  0  0  0  0  0  0  0
    1.6555   68.3307   65.9976 H   0  0  0  0  0  0  0  0  0  0  0  0
    1.1856   69.9023   66.7762 H   0  0  0  0  0  0  0  0  0  0  0  0
  2  1  2  0
  3  2  1  0
  4  3  2  0
  5  4  1  0
  6  1  1  0
  6  5  2  0
  7  6  1  0
  8  7  2  0
  9  7  1  0
 10  9  2  0
 11  9  1  0
 11  5  1  0
 13 12  1  0
 13  1  1  0
  2 14  1  0
  3 15  1  0
  4 16  1  0
 11 17  1  0
 12 18  1  0
 12 19  1  0
 12 20  1  0
 13 21  1  0
 13 22  1  0
M  END
>  <score>  (3) 
-8.03

$$$$
=
     RDKit          3D

 22 23  0  0  0  0  0  0  0  0999 V2000
    4.1980   69.3660   65.7320 C   0  0  0  0  0  0  0  0  0  0  0  0
    5.3310   69.9080   66.3610 C   0  0  0  0  0  0  0  0  0  0  0  0
    5.2790   70.3790   67.6890 C   0  0  0  0  0  0  0  0  0  0  0  0
    4.0970   70.3170   68.4300 C   0  0  0  0  0  0  0  0  0  0  0  0
    2.9890   69.7770   67.8100 C   0  0  0  0  0  0  0  0  0  0  0  0
    3.0390   69.3120   66.4940 C   0  0  0  0  0  0  0  0  0  0  0  0
    1.6920   68.8080   66.1820 C   0  0  0  0  0  0  0  0  0  0  0  0
    1.3020   68.3140   65.1500 O   0  0  0  0  0  0  0  0  0  0  0  0
    0.8560   69.0400   67.4680 C   0  0  0  0  0  0  0  0  0  0  0  0
   -0.3110   68.7640   67.6300 O   0  0  0  0  0  0  0  0  0  0  0  0
    1.7250   69.6190   68.3680 N   0  0  0  0  0  0  0  0  0  0  0  0
    5.4340   69.4690   63.5520 C   0  0  0  0  0  0  0  0  0  0  0  0
    4.2740   68.8540   64.3200 C   0  0  0  0  0  0  0  0  0  0  0  0
    6.2788   69.9662   65.8058 H   0  0  0  0  0  0  0  0  0  0  0  0
    6.1843   70.8022   68.1488 H   0  0  0  0  0  0  0  0  0  0  0  0
    4.0511   70.6838   69.4660 H   0  0  0  0  0  0  0  0  0  0  0  0
    1.4717   69.8977   69.3267 H   0  0  0  0  0  0  0  0  0  0  0  0
    6.1763   69.8625   64.2621 H   0  0  0  0  0  0  0  0  0  0  0  0
    5.9030   68.7011   62.9193 H   0  0  0  0  0  0  0  0  0  0  0  0
    5.0616   70.2881   62.9193 H   0  0  0  0  0  0  0  0  0  0  0  0
    3.3352   69.0999   63.8021 H   0  0  0  0  0  0  0  0  0  0  0  0
    4.4328   67.7663   64.3613 H   0  0  0  0  0  0  0  0  0  0  0  0
  2  1  2  0
  3  2  1  0
  4  3  2  0
  5  4  1  0
  6  1  1  0
  6  5  2  0
  7  6  1  0
  8  7  2  0
  9  7  1  0
 10  9  2  0
 11  9  1  0
 11  5  1  0
 13 12  1  0
 13  1  1  0
  2 14  1  0
  3 15  1  0
  4 16  1  0
 11 17  1  0
 12 18  1  0
 12 19  1  0
 12 20  1  0
 13 21  1  0
 13 22  1  0
M  END
>  <score>  (4) 
-8.021

$$$$
=
     RDKit          3D

 22 23  0  0  0  0  0  0  0  0999 V2000
    5.0690   70.3680   67.7280 C   0  0  0  0  0  0  0  0  0  0  0  0
    4.3900   70.5170   68.9500 C   0  0  0  0  0  0  0  0  0  0  0  0
    3.0390   70.1370   69.0910 C   0  0  0  0  0  0  0  0  0  0  0  0
    2.3280   69.5910   68.0190 C   0  0  0  0  0  0  0  0  0  0  0  0
    3.0010   69.4410   66.8240 C   0  0  0  0  0  0  0  0  0  0  0  0
    4.3390   69.8180   66.6840 C   0  0  0  0  0  0  0  0  0  0  0  0
    4.7120   69.5060   65.2950 C   0  0  0  0  0  0  0  0  0  0  0  0
    5.7820   69.6710   64.7550 O   0  0  0  0  0  0  0  0  0  0  0  0
    3.4340   68.9090   64.6480 C   0  0  0  0  0  0  0  0  0  0  0  0
    3.3170   68.5220   63.5060 O   0  0  0  0  0  0  0  0  0  0  0  0
    2.4830   68.9170   65.6450 N   0  0  0  0  0  0  0  0  0  0  0  0
    7.1610   71.0110   68.9530 C   0  0  0  0  0  0  0  0  0  0  0  0
    6.5130   70.7640   67.5990 C   0  0  0  0  0  0  0  0  0  0  0  0
    4.9236   70.9389   69.8144 H   0  0  0  0  0  0  0  0  0  0  0  0
    2.5370   70.2726   70.0603 H   0  0  0  0  0  0  0  0  0  0  0  0
    1.2744   69.2929   68.1237 H   0  0  0  0  0  0  0  0  0  0  0  0
    1.5165   68.5795   65.5318 H   0  0  0  0  0  0  0  0  0  0  0  0
    6.4547   70.7418   69.7521 H   0  0  0  0  0  0  0  0  0  0  0  0
    8.0683   70.3957   69.0430 H   0  0  0  0  0  0  0  0  0  0  0  0
    7.4286   72.0742   69.0430 H   0  0  0  0  0  0  0  0  0  0  0  0
    6.5762   71.6857   67.0019 H   0  0  0  0  0  0  0  0  0  0  0  0
    7.0494   69.9361   67.1123 H   0  0  0  0  0  0  0  0  0  0  0  0
  2  1  2  0
  3  2  1  0
  4  3  2  0
  5  4  1  0
  6  1  1  0
  6  5  2  0
  7  6  1  0
  8  7  2  0
  9  7  1  0
 10  9  2  0
 11  9  1  0
 11  5  1  0
 13 12  1  0
 13  1  1  0
  2 14  1  0
  3 15  1  0
  4 16  1  0
 11 17  1  0
 12 18  1  0
 12 19  1  0
 12 20  1  0
 13 21  1  0
 13 22  1  0
M  END
>  <score>  (5) 
-8.011

$$$$
=
     RDKit          3D

 22 23  0  0  0  0  0  0  0  0999 V2000
    4.3050   69.5460   65.8920 C   0  0  0  0  0  0  0  0  0  0  0  0
    5.2160   69.6590   64.8280 C   0  0  0  0  0  0  0  0  0  0  0  0
    4.8610   69.2870   63.5150 C   0  0  0  0  0  0  0  0  0  0  0  0
    3.5850   68.7970   63.2240 C   0  0  0  0  0  0  0  0  0  0  0  0
    2.6930   68.6950   64.2720 C   0  0  0  0  0  0  0  0  0  0  0  0
    3.0440   69.0620   65.5730 C   0  0  0  0  0  0  0  0  0  0  0  0
    1.8530   68.8260   66.4040 C   0  0  0  0  0  0  0  0  0  0  0  0
    1.7240   69.0160   67.5920 O   0  0  0  0  0  0  0  0  0  0  0  0
    0.7750   68.2760   65.4340 C   0  0  0  0  0  0  0  0  0  0  0  0
   -0.3560   67.9520   65.7210 O   0  0  0  0  0  0  0  0  0  0  0  0
    1.3810   68.2400   64.1970 N   0  0  0  0  0  0  0  0  0  0  0  0
    6.1640   70.3460   67.3740 C   0  0  0  0  0  0  0  0  0  0  0  0
    4.6950   69.9620   67.2840 C   0  0  0  0  0  0  0  0  0  0  0  0
    6.2271   70.0457   65.0235 H   0  0  0  0  0  0  0  0  0  0  0  0
    5.6006   69.3841   62.7065 H   0  0  0  0  0  0  0  0  0  0  0  0
    3.3032   68.5047   62.2017 H   0  0  0  0  0  0  0  0  0  0  0  0
    0.9232   67.9189   63.3320 H   0  0  0  0  0  0  0  0  0  0  0  0
    6.4588   70.4230   68.4310 H   0  0  0  0  0  0  0  0  0  0  0  0
    6.7750   69.5774   66.8781 H   0  0  0  0  0  0  0  0  0  0  0  0
    6.3207   71.3153   66.8781 H   0  0  0  0  0  0  0  0  0  0  0  0
    4.5042   69.1247   67.9714 H   0  0  0  0  0  0  0  0  0  0  0  0
    4.0963   70.8441   67.5551 H   0  0  0  0  0  0  0  0  0  0  0  0
  2  1  2  0
  3  2  1  0
  4  3  2  0
  5  4  1  0
  6  1  1  0
  6  5  2  0
  7  6  1  0
  8  7  2  0
  9  7  1  0
 10  9  2  0
 11  9  1  0
 11  5  1  0
 13 12  1  0
 13  1  1  0
  2 14  1  0
  3 15  1  0
  4 16  1  0
 11 17  1  0
 12 18  1  0
 12 19  1  0
 12 20  1  0
 13 21  1  0
 13 22  1  0
M  END
>  <score>  (6) 
-7.976

$$$$
=
     RDKit          3D

 22 23  0  0  0  0  0  0  0  0999 V2000
    4.7310   69.8570   66.5040 C   0  0  0  0  0  0  0  0  0  0  0  0
    3.9750   69.8430   67.6890 C   0  0  0  0  0  0  0  0  0  0  0  0
    2.6280   69.4270   67.6970 C   0  0  0  0  0  0  0  0  0  0  0  0
    1.9960   69.0080   66.5240 C   0  0  0  0  0  0  0  0  0  0  0  0
    2.7440   69.0170   65.3650 C   0  0  0  0  0  0  0  0  0  0  0  0
    4.0790   69.4300   65.3560 C   0  0  0  0  0  0  0  0  0  0  0  0
    4.5420   69.2980   63.9660 C   0  0  0  0  0  0  0  0  0  0  0  0
    5.6390   69.5450   63.5190 O   0  0  0  0  0  0  0  0  0  0  0  0
    3.3200   68.7660   63.1710 C   0  0  0  0  0  0  0  0  0  0  0  0
    3.2810   68.5210   61.9860 O   0  0  0  0  0  0  0  0  0  0  0  0
    2.3100   68.6350   64.0990 N   0  0  0  0  0  0  0  0  0  0  0  0
    6.6560   70.6180   67.9190 C   0  0  0  0  0  0  0  0  0  0  0  0
    6.1710   70.2880   66.5160 C   0  0  0  0  0  0  0  0  0  0  0  0
    4.4447   70.1636   68.6306 H   0  0  0  0  0  0  0  0  0  0  0  0
    2.0656   69.4325   68.6424 H   0  0  0  0  0  0  0  0  0  0  0  0
    0.9448   68.6841   66.5244 H   0  0  0  0  0  0  0  0  0  0  0  0
    1.3603   68.2991   63.8844 H   0  0  0  0  0  0  0  0  0  0  0  0
    5.9819   70.1593   68.6573 H   0  0  0  0  0  0  0  0  0  0  0  0
    7.6737   70.2241   68.0573 H   0  0  0  0  0  0  0  0  0  0  0  0
    6.6632   71.7093   68.0573 H   0  0  0  0  0  0  0  0  0  0  0  0
    6.2794   71.1815   65.8836 H   0  0  0  0  0  0  0  0  0  0  0  0
    6.7782   69.4539   66.1344 H   0  0  0  0  0  0  0  0  0  0  0  0
  2  1  2  0
  3  2  1  0
  4  3  2  0
  5  4  1  0
  6  1  1  0
  6  5  2  0
  7  6  1  0
  8  7  2  0
  9  7  1  0
 10  9  2  0
 11  9  1  0
 11  5  1  0
 13 12  1  0
 13  1  1  0
  2 14  1  0
  3 15  1  0
  4 16  1  0
 11 17  1  0
 12 18  1  0
 12 19  1  0
 12 20  1  0
 13 21  1  0
 13 22  1  0
M  END
>  <score>  (7) 
-7.971

$$$$
=
     RDKit          3D

 22 23  0  0  0  0  0  0  0  0999 V2000
    3.8140   69.1950   65.3590 C   0  0  0  0  0  0  0  0  0  0  0  0
    2.8050   68.4900   64.6790 C   0  0  0  0  0  0  0  0  0  0  0  0
    1.5960   68.1410   65.3160 C   0  0  0  0  0  0  0  0  0  0  0  0
    1.3570   68.4890   66.6470 C   0  0  0  0  0  0  0  0  0  0  0  0
    2.3470   69.1860   67.3070 C   0  0  0  0  0  0  0  0  0  0  0  0
    3.5450   69.5320   66.6770 C   0  0  0  0  0  0  0  0  0  0  0  0
    4.3410   70.2630   67.6760 C   0  0  0  0  0  0  0  0  0  0  0  0
    5.4420   70.7450   67.5440 O   0  0  0  0  0  0  0  0  0  0  0  0
    3.4660   70.2970   68.9570 C   0  0  0  0  0  0  0  0  0  0  0  0
    3.7570   70.8080   70.0160 O   0  0  0  0  0  0  0  0  0  0  0  0
    2.3070   69.6300   68.6250 N   0  0  0  0  0  0  0  0  0  0  0  0
    5.4340   68.6070   63.5360 C   0  0  0  0  0  0  0  0  0  0  0  0
    5.0910   69.5730   64.6600 C   0  0  0  0  0  0  0  0  0  0  0  0
    2.9619   68.2047   63.6283 H   0  0  0  0  0  0  0  0  0  0  0  0
    0.8293   67.5860   64.7555 H   0  0  0  0  0  0  0  0  0  0  0  0
    0.4165   68.2180   67.1490 H   0  0  0  0  0  0  0  0  0  0  0  0
    1.5159   69.4800   69.2673 H   0  0  0  0  0  0  0  0  0  0  0  0
    5.7731   67.6521   63.9639 H   0  0  0  0  0  0  0  0  0  0  0  0
    4.5421   68.4347   62.9157 H   0  0  0  0  0  0  0  0  0  0  0  0
    6.2348   69.0357   62.9157 H   0  0  0  0  0  0  0  0  0  0  0  0
    5.9111   69.5703   65.3930 H   0  0  0  0  0  0  0  0  0  0  0  0
    4.9539   70.5715   64.2193 H   0  0  0  0  0  0  0  0  0  0  0  0
  2  1  2  0
  3  2  1  0
  4  3  2  0
  5  4  1  0
  6  1  1  0
  6  5  2  0
  7  6  1  0
  8  7  2  0
  9  7  1  0
 10  9  2  0
 11  9  1  0
 11  5  1  0
 13 12  1  0
 13  1  1  0
  2 14  1  0
  3 15  1  0
  4 16  1  0
 11 17  1  0
 12 18  1  0
 12 19  1  0
 12 20  1  0
 13 21  1  0
 13 22  1  0
M  END
>  <score>  (8) 
-7.695

$$$$
=
     RDKit          3D

 22 23  0  0  0  0  0  0  0  0999 V2000
    3.6620   69.0160   64.3910 C   0  0  0  0  0  0  0  0  0  0  0  0
    4.7310   69.4980   65.1650 C   0  0  0  0  0  0  0  0  0  0  0  0
    4.5850   69.7470   66.5450 C   0  0  0  0  0  0  0  0  0  0  0  0
    3.3700   69.5190   67.1940 C   0  0  0  0  0  0  0  0  0  0  0  0
    2.3250   69.0400   66.4310 C   0  0  0  0  0  0  0  0  0  0  0  0
    2.4690   68.7930   65.0630 C   0  0  0  0  0  0  0  0  0  0  0  0
    1.1670   68.2910   64.5960 C   0  0  0  0  0  0  0  0  0  0  0  0
    0.8570   67.9530   63.4770 O   0  0  0  0  0  0  0  0  0  0  0  0
    0.2530   68.2800   65.8500 C   0  0  0  0  0  0  0  0  0  0  0  0
   -0.9060   67.9340   65.8940 O   0  0  0  0  0  0  0  0  0  0  0  0
    1.0420   68.7430   66.8800 N   0  0  0  0  0  0  0  0  0  0  0  0
    5.2250   69.1290   62.4330 C   0  0  0  0  0  0  0  0  0  0  0  0
    3.8390   68.7400   62.9240 C   0  0  0  0  0  0  0  0  0  0  0  0
    5.7024   69.6850   64.6840 H   0  0  0  0  0  0  0  0  0  0  0  0
    5.4424   70.1271   67.1198 H   0  0  0  0  0  0  0  0  0  0  0  0
    3.2507   69.7134   68.2701 H   0  0  0  0  0  0  0  0  0  0  0  0
    0.7243   68.8545   67.8534 H   0  0  0  0  0  0  0  0  0  0  0  0
    5.8815   69.3132   63.2962 H   0  0  0  0  0  0  0  0  0  0  0  0
    5.6407   68.3128   61.8238 H   0  0  0  0  0  0  0  0  0  0  0  0
    5.1553   70.0423   61.8238 H   0  0  0  0  0  0  0  0  0  0  0  0
    3.0888   69.3153   62.3616 H   0  0  0  0  0  0  0  0  0  0  0  0
    3.7137   67.6588   62.7647 H   0  0  0  0  0  0  0  0  0  0  0  0
  2  1  2  0
  3  2  1  0
  4  3  2  0
  5  4  1  0
  6  1  1  0
  6  5  2  0
  7  6  1  0
  8  7  2  0
  9  7  1  0
 10  9  2  0
 11  9  1  0
 11  5  1  0
 13 12  1  0
 13  1  1  0
  2 14  1  0
  3 15  1  0
  4 16  1  0
 11 17  1  0
 12 18  1  0
 12 19  1  0
 12 20  1  0
 13 21  1  0
 13 22  1  0
M  END
>  <score>  (9) 
-7.691

$$$$
