=
     RDKit          3D

 26 26  0  0  0  0  0  0  0  0999 V2000
    4.7090   69.8070   66.8880 N   0  0  0  0  0  0  0  0  0  0  0  0
    4.3180   69.3940   65.6220 C   0  0  0  0  0  0  0  0  0  0  0  0
    4.8870   69.7520   64.5940 O   0  0  0  0  0  0  0  0  0  0  0  0
    3.1720   68.4510   65.5550 C   0  0  0  0  0  0  0  0  0  0  0  0
    2.0680   68.7020   66.3730 C   0  0  0  0  0  0  0  0  0  0  0  0
    1.0020   67.8250   66.3130 C   0  0  0  0  0  0  0  0  0  0  0  0
    0.9740   66.7370   65.5130 N   0  0  0  0  0  0  0  0  0  0  0  0
    2.0630   66.5060   64.7510 C   0  0  0  0  0  0  0  0  0  0  0  0
    3.1800   67.3230   64.7340 C   0  0  0  0  0  0  0  0  0  0  0  0
    5.7740   70.7280   67.0180 N   0  0  0  0  0  0  0  0  0  0  0  0
    7.1160   70.9590   69.0840 C   0  0  0  0  0  0  0  0  0  0  0  0
    5.8140   71.3200   68.3680 C   0  0  0  0  0  0  0  0  0  0  0  0
    4.6170   70.8020   69.1660 C   0  0  0  0  0  0  0  0  0  0  0  0
    4.2282   69.4462   67.7244 H   0  0  0  0  0  0  0  0  0  0  0  0
    2.0478   69.5724   67.0453 H   0  0  0  0  0  0  0  0  0  0  0  0
    0.1286   68.0236   66.9515 H   0  0  0  0  0  0  0  0  0  0  0  0
    2.0632   65.6157   64.1050 H   0  0  0  0  0  0  0  0  0  0  0  0
    4.0447   67.0909   64.0949 H   0  0  0  0  0  0  0  0  0  0  0  0
    6.6630   70.2391   66.8404 H   0  0  0  0  0  0  0  0  0  0  0  0
    6.9602   71.0022   70.1721 H   0  0  0  0  0  0  0  0  0  0  0  0
    7.4222   69.9421   68.7975 H   0  0  0  0  0  0  0  0  0  0  0  0
    7.9022   71.6731   68.7975 H   0  0  0  0  0  0  0  0  0  0  0  0
    5.7674   72.4158   68.2842 H   0  0  0  0  0  0  0  0  0  0  0  0
    4.8267   70.8927   70.2420 H   0  0  0  0  0  0  0  0  0  0  0  0
    3.7249   71.3946   68.9150 H   0  0  0  0  0  0  0  0  0  0  0  0
    4.4383   69.7460   68.9150 H   0  0  0  0  0  0  0  0  0  0  0  0
  2  1  1  0
  3  2  2  0
  4  2  1  0
  5  4  2  0
  6  5  1  0
  7  6  2  0
  8  7  1  0
  9  8  2  0
  9  4  1  0
 10  1  1  0
 12 10  1  0
 12 11  1  0
 13 12  1  0
  1 14  1  0
  5 15  1  0
  6 16  1  0
  8 17  1  0
  9 18  1  0
 10 19  1  0
 11 20  1  0
 11 21  1  0
 11 22  1  0
 12 23  1  0
 13 24  1  0
 13 25  1  0
 13 26  1  0
M  END
>  <score>  (1) 
-7.032

$$$$
=
     RDKit          3D

 26 26  0  0  0  0  0  0  0  0999 V2000
    4.1220   69.2610   64.6800 N   0  0  0  0  0  0  0  0  0  0  0  0
    3.6500   69.3380   65.9830 C   0  0  0  0  0  0  0  0  0  0  0  0
    2.5310   68.9550   66.3160 O   0  0  0  0  0  0  0  0  0  0  0  0
    4.5860   69.8890   66.9970 C   0  0  0  0  0  0  0  0  0  0  0  0
    5.9320   70.0100   66.6490 C   0  0  0  0  0  0  0  0  0  0  0  0
    6.8040   70.5210   67.5910 C   0  0  0  0  0  0  0  0  0  0  0  0
    6.4260   70.9000   68.8310 N   0  0  0  0  0  0  0  0  0  0  0  0
    5.1230   70.7490   69.1490 C   0  0  0  0  0  0  0  0  0  0  0  0
    4.1700   70.2520   68.2790 C   0  0  0  0  0  0  0  0  0  0  0  0
    3.2690   68.7740   63.6630 N   0  0  0  0  0  0  0  0  0  0  0  0
    5.3850   69.1090   62.4250 C   0  0  0  0  0  0  0  0  0  0  0  0
    4.0280   68.4050   62.4540 C   0  0  0  0  0  0  0  0  0  0  0  0
    3.2100   68.7960   61.2220 C   0  0  0  0  0  0  0  0  0  0  0  0
    5.0833   69.5555   64.4563 H   0  0  0  0  0  0  0  0  0  0  0  0
    6.2885   69.7073   65.6534 H   0  0  0  0  0  0  0  0  0  0  0  0
    7.8640   70.6248   67.3161 H   0  0  0  0  0  0  0  0  0  0  0  0
    4.8001   71.0384   70.1599 H   0  0  0  0  0  0  0  0  0  0  0  0
    3.1193   70.1463   68.5869 H   0  0  0  0  0  0  0  0  0  0  0  0
    2.7713   67.9428   64.0128 H   0  0  0  0  0  0  0  0  0  0  0  0
    5.7279   69.2869   63.4550 H   0  0  0  0  0  0  0  0  0  0  0  0
    6.1153   68.4761   61.8996 H   0  0  0  0  0  0  0  0  0  0  0  0
    5.2881   70.0705   61.8996 H   0  0  0  0  0  0  0  0  0  0  0  0
    4.2099   67.3202   62.4589 H   0  0  0  0  0  0  0  0  0  0  0  0
    2.2603   69.2500   61.5414 H   0  0  0  0  0  0  0  0  0  0  0  0
    3.7781   69.5199   60.6193 H   0  0  0  0  0  0  0  0  0  0  0  0
    3.0034   67.8993   60.6193 H   0  0  0  0  0  0  0  0  0  0  0  0
  2  1  1  0
  3  2  2  0
  4  2  1  0
  5  4  2  0
  6  5  1  0
  7  6  2  0
  8  7  1  0
  9  8  2  0
  9  4  1  0
 10  1  1  0
 12 10  1  0
 12 11  1  0
 13 12  1  0
  1 14  1  0
  5 15  1  0
  6 16  1  0
  8 17  1  0
  9 18  1  0
 10 19  1  0
 11 20  1  0
 11 21  1  0
 11 22  1  0
 12 23  1  0
 13 24  1  0
 13 25  1  0
 13 26  1  0
M  END
>  <score>  (2) 
-6.857

$$$$
=
     RDKit          3D

 26 26  0  0  0  0  0  0  0  0999 V2000
    1.1550   67.8520   66.7290 N   0  0  0  0  0  0  0  0  0  0  0  0
    1.8680   68.5290   65.7490 C   0  0  0  0  0  0  0  0  0  0  0  0
    1.4720   68.6500   64.5930 O   0  0  0  0  0  0  0  0  0  0  0  0
    3.1510   69.1490   66.1700 C   0  0  0  0  0  0  0  0  0  0  0  0
    3.2510   69.6250   67.4790 C   0  0  0  0  0  0  0  0  0  0  0  0
    4.4430   70.2030   67.8710 C   0  0  0  0  0  0  0  0  0  0  0  0
    5.5110   70.3380   67.0560 N   0  0  0  0  0  0  0  0  0  0  0  0
    5.3790   69.8910   65.7900 C   0  0  0  0  0  0  0  0  0  0  0  0
    4.2310   69.2950   65.2990 C   0  0  0  0  0  0  0  0  0  0  0  0
   -0.0600   67.2140   66.3850 N   0  0  0  0  0  0  0  0  0  0  0  0
   -2.2480   66.9360   67.5070 C   0  0  0  0  0  0  0  0  0  0  0  0
   -1.2210   67.9240   66.9530 C   0  0  0  0  0  0  0  0  0  0  0  0
   -1.8580   68.7790   65.8560 C   0  0  0  0  0  0  0  0  0  0  0  0
    1.5068   67.8146   67.6963 H   0  0  0  0  0  0  0  0  0  0  0  0
    2.4054   69.5422   68.1776 H   0  0  0  0  0  0  0  0  0  0  0  0
    4.5266   70.5734   68.9034 H   0  0  0  0  0  0  0  0  0  0  0  0
    6.2343   70.0072   65.1081 H   0  0  0  0  0  0  0  0  0  0  0  0
    4.1718   68.9479   64.2569 H   0  0  0  0  0  0  0  0  0  0  0  0
   -0.1489   67.1936   65.3590 H   0  0  0  0  0  0  0  0  0  0  0  0
   -2.2235   66.9596   68.6065 H   0  0  0  0  0  0  0  0  0  0  0  0
   -3.2524   67.2161   67.1565 H   0  0  0  0  0  0  0  0  0  0  0  0
   -2.0070   65.9216   67.1565 H   0  0  0  0  0  0  0  0  0  0  0  0
   -0.8836   68.5620   67.7831 H   0  0  0  0  0  0  0  0  0  0  0  0
   -2.4550   69.5803   66.3159 H   0  0  0  0  0  0  0  0  0  0  0  0
   -1.0683   69.2223   65.2317 H   0  0  0  0  0  0  0  0  0  0  0  0
   -2.5088   68.1492   65.2317 H   0  0  0  0  0  0  0  0  0  0  0  0
  2  1  1  0
  3  2  2  0
  4  2  1  0
  5  4  2  0
  6  5  1  0
  7  6  2  0
  8  7  1  0
  9  8  2  0
  9  4  1  0
 10  1  1  0
 12 10  1  0
 12 11  1  0
 13 12  1  0
  1 14  1  0
  5 15  1  0
  6 16  1  0
  8 17  1  0
  9 18  1  0
 10 19  1  0
 11 20  1  0
 11 21  1  0
 11 22  1  0
 12 23  1  0
 13 24  1  0
 13 25  1  0
 13 26  1  0
M  END
>  <score>  (3) 
-6.801

$$$$
=
     RDKit          3D

 26 26  0  0  0  0  0  0  0  0999 V2000
    4.0360   69.9420   67.8980 N   0  0  0  0  0  0  0  0  0  0  0  0
    2.6520   69.9290   68.0090 C   0  0  0  0  0  0  0  0  0  0  0  0
    2.0250   70.7410   68.6850 O   0  0  0  0  0  0  0  0  0  0  0  0
    1.9330   68.8870   67.2320 C   0  0  0  0  0  0  0  0  0  0  0  0
    0.6900   68.4580   67.7040 C   0  0  0  0  0  0  0  0  0  0  0  0
    0.0210   67.4880   66.9830 C   0  0  0  0  0  0  0  0  0  0  0  0
    0.5070   66.9270   65.8540 N   0  0  0  0  0  0  0  0  0  0  0  0
    1.7200   67.3430   65.4350 C   0  0  0  0  0  0  0  0  0  0  0  0
    2.4700   68.3100   66.0810 C   0  0  0  0  0  0  0  0  0  0  0  0
    4.7800   70.8910   68.6370 N   0  0  0  0  0  0  0  0  0  0  0  0
    6.3660   70.1420   66.8910 C   0  0  0  0  0  0  0  0  0  0  0  0
    6.1050   71.1250   68.0330 C   0  0  0  0  0  0  0  0  0  0  0  0
    7.1730   70.9640   69.1150 C   0  0  0  0  0  0  0  0  0  0  0  0
    4.5155   69.2680   67.2843 H   0  0  0  0  0  0  0  0  0  0  0  0
    0.2568   68.8802   68.6227 H   0  0  0  0  0  0  0  0  0  0  0  0
   -0.9614   67.1540   67.3481 H   0  0  0  0  0  0  0  0  0  0  0  0
    2.1378   66.8863   64.5257 H   0  0  0  0  0  0  0  0  0  0  0  0
    3.4562   68.6134   65.6998 H   0  0  0  0  0  0  0  0  0  0  0  0
    4.2604   71.7800   68.6597 H   0  0  0  0  0  0  0  0  0  0  0  0
    6.6273   69.1578   67.3069 H   0  0  0  0  0  0  0  0  0  0  0  0
    5.4611   70.0501   66.2723 H   0  0  0  0  0  0  0  0  0  0  0  0
    7.1973   70.5111   66.2723 H   0  0  0  0  0  0  0  0  0  0  0  0
    6.1377   72.1428   67.6171 H   0  0  0  0  0  0  0  0  0  0  0  0
    6.7034   71.0348   70.1072 H   0  0  0  0  0  0  0  0  0  0  0  0
    7.6582   69.9826   69.0082 H   0  0  0  0  0  0  0  0  0  0  0  0
    7.9259   71.7588   69.0082 H   0  0  0  0  0  0  0  0  0  0  0  0
  2  1  1  0
  3  2  2  0
  4  2  1  0
  5  4  2  0
  6  5  1  0
  7  6  2  0
  8  7  1  0
  9  8  2  0
  9  4  1  0
 10  1  1  0
 12 10  1  0
 12 11  1  0
 13 12  1  0
  1 14  1  0
  5 15  1  0
  6 16  1  0
  8 17  1  0
  9 18  1  0
 10 19  1  0
 11 20  1  0
 11 21  1  0
 11 22  1  0
 12 23  1  0
 13 24  1  0
 13 25  1  0
 13 26  1  0
M  END
>  <score>  (4) 
-6.684

$$$$
=
     RDKit          3D

 26 26  0  0  0  0  0  0  0  0999 V2000
    1.1250   67.4920   65.9710 N   0  0  0  0  0  0  0  0  0  0  0  0
    1.4150   67.9830   64.7050 C   0  0  0  0  0  0  0  0  0  0  0  0
    0.6010   67.9930   63.7860 O   0  0  0  0  0  0  0  0  0  0  0  0
    2.7770   68.5420   64.5070 C   0  0  0  0  0  0  0  0  0  0  0  0
    3.4310   69.0860   65.6140 C   0  0  0  0  0  0  0  0  0  0  0  0
    4.6970   69.6070   65.4310 C   0  0  0  0  0  0  0  0  0  0  0  0
    5.3310   69.6260   64.2380 N   0  0  0  0  0  0  0  0  0  0  0  0
    4.6670   69.1160   63.1800 C   0  0  0  0  0  0  0  0  0  0  0  0
    3.3990   68.5680   63.2580 C   0  0  0  0  0  0  0  0  0  0  0  0
   -0.1450   66.9190   66.2160 N   0  0  0  0  0  0  0  0  0  0  0  0
   -2.2260   67.0000   67.5540 C   0  0  0  0  0  0  0  0  0  0  0  0
   -0.8870   67.6730   67.2440 C   0  0  0  0  0  0  0  0  0  0  0  0
   -1.1230   69.0950   66.7340 C   0  0  0  0  0  0  0  0  0  0  0  0
    1.8266   67.5444   66.7232 H   0  0  0  0  0  0  0  0  0  0  0  0
    2.9516   69.0993   66.6039 H   0  0  0  0  0  0  0  0  0  0  0  0
    5.2171   70.0292   66.3035 H   0  0  0  0  0  0  0  0  0  0  0  0
    5.1626   69.1371   62.1982 H   0  0  0  0  0  0  0  0  0  0  0  0
    2.8978   68.1661   62.3651 H   0  0  0  0  0  0  0  0  0  0  0  0
   -0.6883   66.9220   65.3410 H   0  0  0  0  0  0  0  0  0  0  0  0
   -2.3591   66.9331   68.6439 H   0  0  0  0  0  0  0  0  0  0  0  0
   -3.0440   67.5941   67.1205 H   0  0  0  0  0  0  0  0  0  0  0  0
   -2.2373   65.9891   67.1205 H   0  0  0  0  0  0  0  0  0  0  0  0
   -0.2970   67.6964   68.1721 H   0  0  0  0  0  0  0  0  0  0  0  0
   -1.2362   69.7773   67.5894 H   0  0  0  0  0  0  0  0  0  0  0  0
   -0.2653   69.4124   66.1228 H   0  0  0  0  0  0  0  0  0  0  0  0
   -2.0373   69.1183   66.1228 H   0  0  0  0  0  0  0  0  0  0  0  0
  2  1  1  0
  3  2  2  0
  4  2  1  0
  5  4  2  0
  6  5  1  0
  7  6  2  0
  8  7  1  0
  9  8  2  0
  9  4  1  0
 10  1  1  0
 12 10  1  0
 12 11  1  0
 13 12  1  0
  1 14  1  0
  5 15  1  0
  6 16  1  0
  8 17  1  0
  9 18  1  0
 10 19  1  0
 11 20  1  0
 11 21  1  0
 11 22  1  0
 12 23  1  0
 13 24  1  0
 13 25  1  0
 13 26  1  0
M  END
>  <score>  (5) 
-6.567

$$$$
=
     RDKit          3D

 26 26  0  0  0  0  0  0  0  0999 V2000
    1.3030   68.0970   66.8750 N   0  0  0  0  0  0  0  0  0  0  0  0
    2.1760   69.1020   67.2700 C   0  0  0  0  0  0  0  0  0  0  0  0
    2.0190   69.7640   68.2930 O   0  0  0  0  0  0  0  0  0  0  0  0
    3.3580   69.3340   66.4020 C   0  0  0  0  0  0  0  0  0  0  0  0
    4.5110   69.8590   66.9900 C   0  0  0  0  0  0  0  0  0  0  0  0
    5.6110   70.0760   66.1830 C   0  0  0  0  0  0  0  0  0  0  0  0
    5.6290   69.8170   64.8580 N   0  0  0  0  0  0  0  0  0  0  0  0
    4.4940   69.3320   64.3110 C   0  0  0  0  0  0  0  0  0  0  0  0
    3.3400   69.0760   65.0310 C   0  0  0  0  0  0  0  0  0  0  0  0
    0.1420   67.8470   67.6440 N   0  0  0  0  0  0  0  0  0  0  0  0
   -1.4380   68.9320   66.0780 C   0  0  0  0  0  0  0  0  0  0  0  0
   -1.0370   67.6360   66.7850 C   0  0  0  0  0  0  0  0  0  0  0  0
   -2.1930   67.1350   67.6520 C   0  0  0  0  0  0  0  0  0  0  0  0
    1.4985   67.5395   66.0313 H   0  0  0  0  0  0  0  0  0  0  0  0
    4.5423   70.0929   68.0644 H   0  0  0  0  0  0  0  0  0  0  0  0
    6.5226   70.4823   66.6454 H   0  0  0  0  0  0  0  0  0  0  0  0
    4.4859   69.1284   63.2300 H   0  0  0  0  0  0  0  0  0  0  0  0
    2.4386   68.6822   64.5386 H   0  0  0  0  0  0  0  0  0  0  0  0
    0.2944   67.0046   68.2167 H   0  0  0  0  0  0  0  0  0  0  0  0
   -1.6758   69.7005   66.8282 H   0  0  0  0  0  0  0  0  0  0  0  0
   -0.6053   69.2792   65.4487 H   0  0  0  0  0  0  0  0  0  0  0  0
   -2.3213   68.7482   65.4487 H   0  0  0  0  0  0  0  0  0  0  0  0
   -0.7921   66.8918   66.0129 H   0  0  0  0  0  0  0  0  0  0  0  0
   -1.9307   67.2487   68.7142 H   0  0  0  0  0  0  0  0  0  0  0  0
   -3.0970   67.7221   67.4327 H   0  0  0  0  0  0  0  0  0  0  0  0
   -2.3827   66.0739   67.4327 H   0  0  0  0  0  0  0  0  0  0  0  0
  2  1  1  0
  3  2  2  0
  4  2  1  0
  5  4  2  0
  6  5  1  0
  7  6  2  0
  8  7  1  0
  9  8  2  0
  9  4  1  0
 10  1  1  0
 12 10  1  0
 12 11  1  0
 13 12  1  0
  1 14  1  0
  5 15  1  0
  6 16  1  0
  8 17  1  0
  9 18  1  0
 10 19  1  0
 11 20  1  0
 11 21  1  0
 11 22  1  0
 12 23  1  0
 13 24  1  0
 13 25  1  0
 13 26  1  0
M  END
>  <score>  (6) 
-6.479

$$$$
=
     RDKit          3D

 26 26  0  0  0  0  0  0  0  0999 V2000
    5.6430   70.3890   66.2090 N   0  0  0  0  0  0  0  0  0  0  0  0
    4.5330   69.6370   65.8480 C   0  0  0  0  0  0  0  0  0  0  0  0
    3.4590   69.6960   66.4410 O   0  0  0  0  0  0  0  0  0  0  0  0
    4.6860   68.7540   64.6630 C   0  0  0  0  0  0  0  0  0  0  0  0
    5.3820   69.2530   63.5590 C   0  0  0  0  0  0  0  0  0  0  0  0
    5.5240   68.4330   62.4560 C   0  0  0  0  0  0  0  0  0  0  0  0
    5.0200   67.1820   62.3850 N   0  0  0  0  0  0  0  0  0  0  0  0
    4.3320   66.7350   63.4560 C   0  0  0  0  0  0  0  0  0  0  0  0
    4.1360   67.4730   64.6090 C   0  0  0  0  0  0  0  0  0  0  0  0
    5.5700   71.2270   67.3460 N   0  0  0  0  0  0  0  0  0  0  0  0
    4.8890   70.6080   69.6440 C   0  0  0  0  0  0  0  0  0  0  0  0
    5.9740   70.5100   68.5700 C   0  0  0  0  0  0  0  0  0  0  0  0
    7.2780   71.1190   69.0880 C   0  0  0  0  0  0  0  0  0  0  0  0
    6.5098   70.3371   65.6550 H   0  0  0  0  0  0  0  0  0  0  0  0
    5.8044   70.2686   63.5677 H   0  0  0  0  0  0  0  0  0  0  0  0
    6.0779   68.8203   61.5881 H   0  0  0  0  0  0  0  0  0  0  0  0
    3.9015   65.7238   63.4093 H   0  0  0  0  0  0  0  0  0  0  0  0
    3.5653   67.0635   65.4556 H   0  0  0  0  0  0  0  0  0  0  0  0
    6.1954   72.0338   67.2084 H   0  0  0  0  0  0  0  0  0  0  0  0
    5.3541   70.5660   70.6400 H   0  0  0  0  0  0  0  0  0  0  0  0
    4.3472   71.5587   69.5321 H   0  0  0  0  0  0  0  0  0  0  0  0
    4.1856   69.7697   69.5321 H   0  0  0  0  0  0  0  0  0  0  0  0
    6.1206   69.4458   68.3334 H   0  0  0  0  0  0  0  0  0  0  0  0
    7.2724   71.1164   70.1880 H   0  0  0  0  0  0  0  0  0  0  0  0
    8.1298   70.5255   68.7243 H   0  0  0  0  0  0  0  0  0  0  0  0
    7.3697   72.1531   68.7243 H   0  0  0  0  0  0  0  0  0  0  0  0
  2  1  1  0
  3  2  2  0
  4  2  1  0
  5  4  2  0
  6  5  1  0
  7  6  2  0
  8  7  1  0
  9  8  2  0
  9  4  1  0
 10  1  1  0
 12 10  1  0
 12 11  1  0
 13 12  1  0
  1 14  1  0
  5 15  1  0
  6 16  1  0
  8 17  1  0
  9 18  1  0
 10 19  1  0
 11 20  1  0
 11 21  1  0
 11 22  1  0
 12 23  1  0
 13 24  1  0
 13 25  1  0
 13 26  1  0
M  END
>  <score>  (7) 
-6.393

$$$$
=
     RDKit          3D

 26 26  0  0  0  0  0  0  0  0999 V2000
    4.5280   69.8660   66.6560 N   0  0  0  0  0  0  0  0  0  0  0  0
    3.3440   69.3840   66.1140 C   0  0  0  0  0  0  0  0  0  0  0  0
    2.3090   69.2620   66.7640 O   0  0  0  0  0  0  0  0  0  0  0  0
    3.3660   69.0420   64.6680 C   0  0  0  0  0  0  0  0  0  0  0  0
    2.1580   68.7000   64.0570 C   0  0  0  0  0  0  0  0  0  0  0  0
    2.1770   68.3800   62.7130 C   0  0  0  0  0  0  0  0  0  0  0  0
    3.3000   68.3720   61.9630 N   0  0  0  0  0  0  0  0  0  0  0  0
    4.4570   68.6830   62.5850 C   0  0  0  0  0  0  0  0  0  0  0  0
    4.5460   69.0210   63.9240 C   0  0  0  0  0  0  0  0  0  0  0  0
    4.5810   70.1820   68.0330 N   0  0  0  0  0  0  0  0  0  0  0  0
    6.9470   70.5580   67.4160 C   0  0  0  0  0  0  0  0  0  0  0  0
    5.8090   70.9250   68.3700 C   0  0  0  0  0  0  0  0  0  0  0  0
    6.2050   70.5920   69.8090 C   0  0  0  0  0  0  0  0  0  0  0  0
    5.3592   69.9920   66.0609 H   0  0  0  0  0  0  0  0  0  0  0  0
    1.2185   68.6857   64.6290 H   0  0  0  0  0  0  0  0  0  0  0  0
    1.2255   68.1174   62.2275 H   0  0  0  0  0  0  0  0  0  0  0  0
    5.3837   68.6668   61.9926 H   0  0  0  0  0  0  0  0  0  0  0  0
    5.5141   69.2648   64.3860 H   0  0  0  0  0  0  0  0  0  0  0  0
    3.7633   70.7594   68.2756 H   0  0  0  0  0  0  0  0  0  0  0  0
    7.8354   70.2715   67.9980 H   0  0  0  0  0  0  0  0  0  0  0  0
    6.6363   69.7145   66.7820 H   0  0  0  0  0  0  0  0  0  0  0  0
    7.1877   71.4241   66.7820 H   0  0  0  0  0  0  0  0  0  0  0  0
    5.6183   72.0038   68.2704 H   0  0  0  0  0  0  0  0  0  0  0  0
    5.5530   71.1403   70.5049 H   0  0  0  0  0  0  0  0  0  0  0  0
    6.0954   69.5107   69.9786 H   0  0  0  0  0  0  0  0  0  0  0  0
    7.2515   70.8855   69.9786 H   0  0  0  0  0  0  0  0  0  0  0  0
  2  1  1  0
  3  2  2  0
  4  2  1  0
  5  4  2  0
  6  5  1  0
  7  6  2  0
  8  7  1  0
  9  8  2  0
  9  4  1  0
 10  1  1  0
 12 10  1  0
 12 11  1  0
 13 12  1  0
  1 14  1  0
  5 15  1  0
  6 16  1  0
  8 17  1  0
  9 18  1  0
 10 19  1  0
 11 20  1  0
 11 21  1  0
 11 22  1  0
 12 23  1  0
 13 24  1  0
 13 25  1  0
 13 26  1  0
M  END
>  <score>  (8) 
-6.363

$$$$
=
     RDKit          3D

 26 26  0  0  0  0  0  0  0  0999 V2000
    1.6380   68.2270   64.6440 N   0  0  0  0  0  0  0  0  0  0  0  0
    0.3640   68.2520   65.1940 C   0  0  0  0  0  0  0  0  0  0  0  0
   -0.6180   68.6850   64.5950 O   0  0  0  0  0  0  0  0  0  0  0  0
    0.2190   67.6890   66.5610 C   0  0  0  0  0  0  0  0  0  0  0  0
   -1.0290   67.1870   66.9350 C   0  0  0  0  0  0  0  0  0  0  0  0
   -1.1650   66.6640   68.2060 C   0  0  0  0  0  0  0  0  0  0  0  0
   -0.1610   66.6220   69.1080 N   0  0  0  0  0  0  0  0  0  0  0  0
    1.0280   67.1350   68.7290 C   0  0  0  0  0  0  0  0  0  0  0  0
    1.2700   67.6780   67.4790 C   0  0  0  0  0  0  0  0  0  0  0  0
    1.8470   68.7760   63.3570 N   0  0  0  0  0  0  0  0  0  0  0  0
    4.2900   69.1040   63.5760 C   0  0  0  0  0  0  0  0  0  0  0  0
    3.1660   68.3960   62.8170 C   0  0  0  0  0  0  0  0  0  0  0  0
    3.2170   68.7740   61.3360 C   0  0  0  0  0  0  0  0  0  0  0  0
    2.4228   67.8132   65.1672 H   0  0  0  0  0  0  0  0  0  0  0  0
   -1.8793   67.2075   66.2375 H   0  0  0  0  0  0  0  0  0  0  0  0
   -2.1449   66.2595   68.4996 H   0  0  0  0  0  0  0  0  0  0  0  0
    1.8534   67.1209   69.4560 H   0  0  0  0  0  0  0  0  0  0  0  0
    2.2573   68.0870   67.2181 H   0  0  0  0  0  0  0  0  0  0  0  0
    1.1130   68.4307   62.7222 H   0  0  0  0  0  0  0  0  0  0  0  0
    4.1240   68.9995   64.6584 H   0  0  0  0  0  0  0  0  0  0  0  0
    5.2557   68.6508   63.3077 H   0  0  0  0  0  0  0  0  0  0  0  0
    4.2984   70.1707   63.3077 H   0  0  0  0  0  0  0  0  0  0  0  0
    3.3074   67.3116   62.9360 H   0  0  0  0  0  0  0  0  0  0  0  0
    3.3635   69.8599   61.2396 H   0  0  0  0  0  0  0  0  0  0  0  0
    4.0522   68.2469   60.8516 H   0  0  0  0  0  0  0  0  0  0  0  0
    2.2720   68.4871   60.8516 H   0  0  0  0  0  0  0  0  0  0  0  0
  2  1  1  0
  3  2  2  0
  4  2  1  0
  5  4  2  0
  6  5  1  0
  7  6  2  0
  8  7  1  0
  9  8  2  0
  9  4  1  0
 10  1  1  0
 12 10  1  0
 12 11  1  0
 13 12  1  0
  1 14  1  0
  5 15  1  0
  6 16  1  0
  8 17  1  0
  9 18  1  0
 10 19  1  0
 11 20  1  0
 11 21  1  0
 11 22  1  0
 12 23  1  0
 13 24  1  0
 13 25  1  0
 13 26  1  0
M  END
>  <score>  (9) 
-5.796

$$$$
