=
     RDKit          3D

 56 61  0  0  0  0  0  0  0  0999 V2000
   -1.0320   68.2680   66.9510 C   0  0  0  0  0  0  0  0  0  0  0  0
   -2.1620   67.5270   67.2910 C   0  0  0  0  0  0  0  0  0  0  0  0
   -2.0690   66.4720   68.2070 C   0  0  0  0  0  0  0  0  0  0  0  0
   -0.8400   66.1270   68.7910 C   0  0  0  0  0  0  0  0  0  0  0  0
    0.3080   66.8540   68.4520 C   0  0  0  0  0  0  0  0  0  0  0  0
    0.1930   67.9430   67.5580 C   0  0  0  0  0  0  0  0  0  0  0  0
    1.5230   66.4720   69.0290 C   0  0  0  0  0  0  0  0  0  0  0  0
    1.6120   65.4570   69.9190 N   0  0  0  0  0  4  0  0  0  0  0  0
    0.5070   64.7500   70.2870 C   0  0  0  0  0  0  0  0  0  0  0  0
    0.7100   63.6540   71.2590 C   0  0  0  0  0  0  0  0  0  0  0  0
   -0.3490   63.1110   72.0110 C   0  0  0  0  0  0  0  0  0  0  0  0
   -0.0910   62.0630   72.8730 C   0  0  0  0  0  0  0  0  0  0  0  0
   -1.0110   61.4390   73.6560 O   0  0  0  0  0  0  0  0  0  0  0  0
   -0.1890   60.4480   74.3100 C   0  0  0  0  0  0  0  0  0  0  0  0
    1.1970   60.5090   73.9080 O   0  0  0  0  0  0  0  0  0  0  0  0
    1.1650   61.5320   73.0190 C   0  0  0  0  0  0  0  0  0  0  0  0
    2.2380   62.0280   72.3180 C   0  0  0  0  0  0  0  0  0  0  0  0
    2.0120   63.1060   71.4470 C   0  0  0  0  0  0  0  0  0  0  0  0
    3.1550   63.6920   70.6650 C   0  0  0  0  0  0  0  0  0  0  0  0
    2.9370   65.1880   70.5370 C   0  0  0  0  0  0  0  0  0  0  0  0
   -0.7290   65.0740   69.7060 C   0  0  0  0  0  0  0  0  0  0  0  0
   -0.8940   68.9890   64.6790 C   0  0  0  0  0  0  0  0  0  0  0  0
   -1.0110   69.3080   66.0620 O   0  0  0  0  0  0  0  0  0  0  0  0
    1.3390   68.6400   67.2440 O   0  0  0  0  0  0  0  0  0  0  0  0
    1.4570   69.8650   67.9920 C   0  0  0  0  0  0  0  0  0  0  0  0
    2.9280   70.1830   68.1440 C   0  0  0  0  0  0  0  0  0  0  0  0
    3.8380   69.7990   67.1500 C   0  0  0  0  0  0  0  0  0  0  0  0
    5.2070   70.0050   67.3270 C   0  0  0  0  0  0  0  0  0  0  0  0
    5.6920   70.6050   68.5000 C   0  0  0  0  0  0  0  0  0  0  0  0
    4.7780   70.9970   69.4880 C   0  0  0  0  0  0  0  0  0  0  0  0
    3.4080   70.7920   69.3110 C   0  0  0  0  0  0  0  0  0  0  0  0
    7.1770   70.7630   68.7220 C   0  0  0  0  0  0  0  0  0  0  0  0
    7.6000   72.0520   68.6630 F   0  0  0  0  0  0  0  0  0  0  0  0
    7.8800   70.0920   67.7620 F   0  0  0  0  0  0  0  0  0  0  0  0
    7.6030   70.2660   69.9130 F   0  0  0  0  0  0  0  0  0  0  0  0
   -3.1334   67.7724   66.8369 H   0  0  0  0  0  0  0  0  0  0  0  0
   -2.9731   65.9047   68.4731 H   0  0  0  0  0  0  0  0  0  0  0  0
    2.4378   67.0153   68.7497 H   0  0  0  0  0  0  0  0  0  0  0  0
   -1.3673   63.5155   71.9135 H   0  0  0  0  0  0  0  0  0  0  0  0
   -0.2459   60.6074   75.3969 H   0  0  0  0  0  0  0  0  0  0  0  0
   -0.5724   59.4589   74.0191 H   0  0  0  0  0  0  0  0  0  0  0  0
    3.2420   61.5943   72.4355 H   0  0  0  0  0  0  0  0  0  0  0  0
    4.1015   63.4991   71.1912 H   0  0  0  0  0  0  0  0  0  0  0  0
    3.2023   63.2323   69.6668 H   0  0  0  0  0  0  0  0  0  0  0  0
    2.9736   65.6483   71.5354 H   0  0  0  0  0  0  0  0  0  0  0  0
    3.7260   65.6150   69.9005 H   0  0  0  0  0  0  0  0  0  0  0  0
   -1.6231   64.4919   69.9737 H   0  0  0  0  0  0  0  0  0  0  0  0
   -0.5171   67.9613   64.5704 H   0  0  0  0  0  0  0  0  0  0  0  0
   -1.8805   69.0704   64.1992 H   0  0  0  0  0  0  0  0  0  0  0  0
   -0.1941   69.6889   64.1992 H   0  0  0  0  0  0  0  0  0  0  0  0
    0.9529   70.6809   67.4532 H   0  0  0  0  0  0  0  0  0  0  0  0
    0.9868   69.7548   68.9803 H   0  0  0  0  0  0  0  0  0  0  0  0
    3.4709   69.3321   66.2241 H   0  0  0  0  0  0  0  0  0  0  0  0
    5.9116   69.6948   66.5413 H   0  0  0  0  0  0  0  0  0  0  0  0
    5.1433   71.4705   70.4112 H   0  0  0  0  0  0  0  0  0  0  0  0
    2.7019   71.1104   70.0920 H   0  0  0  0  0  0  0  0  0  0  0  0
  2  1  2  0
  3  2  1  0
  4  3  2  0
  5  4  1  0
  6  5  2  0
  6  1  1  0
  7  5  1  0
  8  7  2  0
  9  8  1  0
 10  9  1  0
 11 10  2  0
 12 11  1  0
 13 12  1  0
 14 13  1  0
 15 14  1  0
 16 15  1  0
 16 12  2  0
 17 16  1  0
 18 17  2  0
 18 10  1  0
 19 18  1  0
 20 19  1  0
 20  8  1  0
 21  9  2  0
 21  4  1  0
 23 22  1  0
 23  1  1  0
 24  6  1  0
 25 24  1  0
 26 25  1  0
 27 26  2  0
 28 27  1  0
 29 28  2  0
 30 29  1  0
 31 26  1  0
 31 30  2  0
 32 29  1  0
 33 32  1  0
 34 32  1  0
 35 32  1  0
  2 36  1  0
  3 37  1  0
  7 38  1  0
 11 39  1  0
 14 40  1  0
 14 41  1  0
 17 42  1  0
 19 43  1  0
 19 44  1  0
 20 45  1  0
 20 46  1  0
 21 47  1  0
 22 48  1  0
 22 49  1  0
 22 50  1  0
 25 51  1  0
 25 52  1  0
 27 53  1  0
 28 54  1  0
 30 55  1  0
 31 56  1  0
M  CHG  1   8   1
M  END
>  <score>  (1) 
-9.694

$$$$
=
     RDKit          3D

 56 61  0  0  0  0  0  0  0  0999 V2000
    2.6870   62.5520   70.1940 C   0  0  0  0  0  0  0  0  0  0  0  0
    3.4920   61.5050   70.6380 C   0  0  0  0  0  0  0  0  0  0  0  0
    3.0070   60.5850   71.5750 C   0  0  0  0  0  0  0  0  0  0  0  0
    1.7090   60.7000   72.0970 C   0  0  0  0  0  0  0  0  0  0  0  0
    0.8900   61.7540   71.6700 C   0  0  0  0  0  0  0  0  0  0  0  0
    1.3780   62.6520   70.6940 C   0  0  0  0  0  0  0  0  0  0  0  0
   -0.3880   61.8600   72.2270 C   0  0  0  0  0  0  0  0  0  0  0  0
   -0.8610   60.9670   73.1260 N   0  0  0  0  0  4  0  0  0  0  0  0
   -0.0960   59.9170   73.5400 C   0  0  0  0  0  0  0  0  0  0  0  0
   -0.6990   59.0030   74.5320 C   0  0  0  0  0  0  0  0  0  0  0  0
   -0.2070   57.7010   74.7500 C   0  0  0  0  0  0  0  0  0  0  0  0
   -0.7980   56.9150   75.7200 C   0  0  0  0  0  0  0  0  0  0  0  0
   -0.4290   55.6470   76.0420 O   0  0  0  0  0  0  0  0  0  0  0  0
   -1.3670   55.3470   77.0990 C   0  0  0  0  0  0  0  0  0  0  0  0
   -2.2730   56.4370   77.3760 O   0  0  0  0  0  0  0  0  0  0  0  0
   -1.8480   57.3620   76.4800 C   0  0  0  0  0  0  0  0  0  0  0  0
   -2.3760   58.6190   76.3050 C   0  0  0  0  0  0  0  0  0  0  0  0
   -1.8080   59.4360   75.3130 C   0  0  0  0  0  0  0  0  0  0  0  0
   -2.3560   60.8160   75.0750 C   0  0  0  0  0  0  0  0  0  0  0  0
   -2.2640   61.1240   73.5920 C   0  0  0  0  0  0  0  0  0  0  0  0
    1.2080   59.7910   73.0350 C   0  0  0  0  0  0  0  0  0  0  0  0
    3.7430   63.0770   68.1180 C   0  0  0  0  0  0  0  0  0  0  0  0
    3.0660   63.5100   69.2940 O   0  0  0  0  0  0  0  0  0  0  0  0
    0.5480   63.6770   70.2930 O   0  0  0  0  0  0  0  0  0  0  0  0
    0.9660   64.9530   70.8110 C   0  0  0  0  0  0  0  0  0  0  0  0
    0.5710   66.0180   69.8110 C   0  0  0  0  0  0  0  0  0  0  0  0
   -0.6890   65.9750   69.1970 C   0  0  0  0  0  0  0  0  0  0  0  0
   -1.0240   66.8990   68.2070 C   0  0  0  0  0  0  0  0  0  0  0  0
   -0.1080   67.8870   67.8140 C   0  0  0  0  0  0  0  0  0  0  0  0
    1.1470   67.9340   68.4370 C   0  0  0  0  0  0  0  0  0  0  0  0
    1.4830   67.0100   69.4300 C   0  0  0  0  0  0  0  0  0  0  0  0
   -0.4440   68.8410   66.6920 C   0  0  0  0  0  0  0  0  0  0  0  0
   -0.8990   70.0460   67.1230 F   0  0  0  0  0  0  0  0  0  0  0  0
   -1.4330   68.3260   65.9040 F   0  0  0  0  0  0  0  0  0  0  0  0
    0.6030   69.0930   65.8630 F   0  0  0  0  0  0  0  0  0  0  0  0
    4.5158   61.4006   70.2495 H   0  0  0  0  0  0  0  0  0  0  0  0
    3.6531   59.7591   71.9074 H   0  0  0  0  0  0  0  0  0  0  0  0
   -1.0313   62.6990   71.9235 H   0  0  0  0  0  0  0  0  0  0  0  0
    0.6354   57.3160   74.1565 H   0  0  0  0  0  0  0  0  0  0  0  0
   -1.9573   54.4668   76.8043 H   0  0  0  0  0  0  0  0  0  0  0  0
   -0.7841   55.1633   78.0136 H   0  0  0  0  0  0  0  0  0  0  0  0
   -3.2154   58.9736   76.9212 H   0  0  0  0  0  0  0  0  0  0  0  0
   -3.4067   60.8583   75.3978 H   0  0  0  0  0  0  0  0  0  0  0  0
   -1.7770   61.5545   75.6489 H   0  0  0  0  0  0  0  0  0  0  0  0
   -2.9124   60.4315   73.0352 H   0  0  0  0  0  0  0  0  0  0  0  0
   -2.5884   62.1605   73.4178 H   0  0  0  0  0  0  0  0  0  0  0  0
    1.8456   58.9647   73.3823 H   0  0  0  0  0  0  0  0  0  0  0  0
    4.6386   62.5042   68.4004 H   0  0  0  0  0  0  0  0  0  0  0  0
    3.0727   62.4396   67.5227 H   0  0  0  0  0  0  0  0  0  0  0  0
    4.0405   63.9528   67.5227 H   0  0  0  0  0  0  0  0  0  0  0  0
    0.4714   65.1445   71.7747 H   0  0  0  0  0  0  0  0  0  0  0  0
    2.0547   64.9626   70.9683 H   0  0  0  0  0  0  0  0  0  0  0  0
   -1.4177   65.2079   69.4979 H   0  0  0  0  0  0  0  0  0  0  0  0
   -2.0143   66.8528   67.7304 H   0  0  0  0  0  0  0  0  0  0  0  0
    1.8737   68.7051   68.1415 H   0  0  0  0  0  0  0  0  0  0  0  0
    2.4690   67.0622   69.9149 H   0  0  0  0  0  0  0  0  0  0  0  0
  2  1  2  0
  3  2  1  0
  4  3  2  0
  5  4  1  0
  6  5  2  0
  6  1  1  0
  7  5  1  0
  8  7  2  0
  9  8  1  0
 10  9  1  0
 11 10  2  0
 12 11  1  0
 13 12  1  0
 14 13  1  0
 15 14  1  0
 16 15  1  0
 16 12  2  0
 17 16  1  0
 18 17  2  0
 18 10  1  0
 19 18  1  0
 20 19  1  0
 20  8  1  0
 21  9  2  0
 21  4  1  0
 23 22  1  0
 23  1  1  0
 24  6  1  0
 25 24  1  0
 26 25  1  0
 27 26  2  0
 28 27  1  0
 29 28  2  0
 30 29  1  0
 31 26  1  0
 31 30  2  0
 32 29  1  0
 33 32  1  0
 34 32  1  0
 35 32  1  0
  2 36  1  0
  3 37  1  0
  7 38  1  0
 11 39  1  0
 14 40  1  0
 14 41  1  0
 17 42  1  0
 19 43  1  0
 19 44  1  0
 20 45  1  0
 20 46  1  0
 21 47  1  0
 22 48  1  0
 22 49  1  0
 22 50  1  0
 25 51  1  0
 25 52  1  0
 27 53  1  0
 28 54  1  0
 30 55  1  0
 31 56  1  0
M  CHG  1   8   1
M  END
>  <score>  (2) 
-9.69

$$$$
=
     RDKit          3D

 56 61  0  0  0  0  0  0  0  0999 V2000
    3.1560   62.2780   69.6360 C   0  0  0  0  0  0  0  0  0  0  0  0
    4.1470   61.3010   69.7090 C   0  0  0  0  0  0  0  0  0  0  0  0
    4.0010   60.2050   70.5680 C   0  0  0  0  0  0  0  0  0  0  0  0
    2.8660   60.0710   71.3820 C   0  0  0  0  0  0  0  0  0  0  0  0
    1.8660   61.0490   71.3310 C   0  0  0  0  0  0  0  0  0  0  0  0
    2.0060   62.1290   70.4290 C   0  0  0  0  0  0  0  0  0  0  0  0
    0.7590   60.9040   72.1730 C   0  0  0  0  0  0  0  0  0  0  0  0
    0.6140   59.8410   72.9980 N   0  0  0  0  0  4  0  0  0  0  0  0
    1.5590   58.8610   73.0500 C   0  0  0  0  0  0  0  0  0  0  0  0
    1.3130   57.7470   73.9900 C   0  0  0  0  0  0  0  0  0  0  0  0
    1.9730   56.5080   73.8750 C   0  0  0  0  0  0  0  0  0  0  0  0
    1.7210   55.5250   74.8130 C   0  0  0  0  0  0  0  0  0  0  0  0
    2.2840   54.2880   74.8310 O   0  0  0  0  0  0  0  0  0  0  0  0
    1.6690   53.7230   76.0100 C   0  0  0  0  0  0  0  0  0  0  0  0
    0.7530   54.6310   76.6590 O   0  0  0  0  0  0  0  0  0  0  0  0
    0.8490   55.7180   75.8530 C   0  0  0  0  0  0  0  0  0  0  0  0
    0.1700   56.9020   76.0100 C   0  0  0  0  0  0  0  0  0  0  0  0
    0.3910   57.9150   75.0630 C   0  0  0  0  0  0  0  0  0  0  0  0
   -0.3350   59.2270   75.1840 C   0  0  0  0  0  0  0  0  0  0  0  0
   -0.6410   59.7410   73.7890 C   0  0  0  0  0  0  0  0  0  0  0  0
    2.7060   58.9830   72.2490 C   0  0  0  0  0  0  0  0  0  0  0  0
    3.7110   63.2350   67.5200 C   0  0  0  0  0  0  0  0  0  0  0  0
    3.2040   63.3910   68.8420 O   0  0  0  0  0  0  0  0  0  0  0  0
    1.0040   63.0750   70.4000 O   0  0  0  0  0  0  0  0  0  0  0  0
    1.3840   64.2950   71.0620 C   0  0  0  0  0  0  0  0  0  0  0  0
    0.9350   65.4560   70.2020 C   0  0  0  0  0  0  0  0  0  0  0  0
   -0.3500   65.4620   69.6420 C   0  0  0  0  0  0  0  0  0  0  0  0
   -0.7380   66.4830   68.7730 C   0  0  0  0  0  0  0  0  0  0  0  0
    0.1510   67.5200   68.4500 C   0  0  0  0  0  0  0  0  0  0  0  0
    1.4320   67.5170   69.0190 C   0  0  0  0  0  0  0  0  0  0  0  0
    1.8200   66.4960   69.8900 C   0  0  0  0  0  0  0  0  0  0  0  0
   -0.2440   68.5840   67.4540 C   0  0  0  0  0  0  0  0  0  0  0  0
   -0.0050   69.8490   67.8880 F   0  0  0  0  0  0  0  0  0  0  0  0
   -1.5830   68.5230   67.1910 F   0  0  0  0  0  0  0  0  0  0  0  0
    0.3800   68.4600   66.2530 F   0  0  0  0  0  0  0  0  0  0  0  0
    5.0501   61.3915   69.0875 H   0  0  0  0  0  0  0  0  0  0  0  0
    4.7880   59.4374   70.6053 H   0  0  0  0  0  0  0  0  0  0  0  0
   -0.0204   61.6802   72.1645 H   0  0  0  0  0  0  0  0  0  0  0  0
    2.6784   56.3256   73.0509 H   0  0  0  0  0  0  0  0  0  0  0  0
    1.1168   52.8177   75.7176 H   0  0  0  0  0  0  0  0  0  0  0  0
    2.4738   53.5001   76.7260 H   0  0  0  0  0  0  0  0  0  0  0  0
   -0.5241   57.0516   76.8501 H   0  0  0  0  0  0  0  0  0  0  0  0
   -1.2732   59.0816   75.7395 H   0  0  0  0  0  0  0  0  0  0  0  0
    0.2895   59.9539   75.7240 H   0  0  0  0  0  0  0  0  0  0  0  0
   -1.3328   59.0474   73.2887 H   0  0  0  0  0  0  0  0  0  0  0  0
   -1.1013   60.7372   73.8638 H   0  0  0  0  0  0  0  0  0  0  0  0
    3.4898   58.2131   72.3034 H   0  0  0  0  0  0  0  0  0  0  0  0
    4.7614   62.9118   67.5659 H   0  0  0  0  0  0  0  0  0  0  0  0
    3.1174   62.4779   66.9866 H   0  0  0  0  0  0  0  0  0  0  0  0
    3.6457   64.1948   66.9866 H   0  0  0  0  0  0  0  0  0  0  0  0
    0.8985   64.3513   72.0474 H   0  0  0  0  0  0  0  0  0  0  0  0
    2.4740   64.3268   71.2062 H   0  0  0  0  0  0  0  0  0  0  0  0
   -1.0574   64.6566   69.8891 H   0  0  0  0  0  0  0  0  0  0  0  0
   -1.7483   66.4749   68.3379 H   0  0  0  0  0  0  0  0  0  0  0  0
    2.1378   68.3255   68.7777 H   0  0  0  0  0  0  0  0  0  0  0  0
    2.8266   66.5088   70.3335 H   0  0  0  0  0  0  0  0  0  0  0  0
  2  1  2  0
  3  2  1  0
  4  3  2  0
  5  4  1  0
  6  5  2  0
  6  1  1  0
  7  5  1  0
  8  7  2  0
  9  8  1  0
 10  9  1  0
 11 10  2  0
 12 11  1  0
 13 12  1  0
 14 13  1  0
 15 14  1  0
 16 15  1  0
 16 12  2  0
 17 16  1  0
 18 17  2  0
 18 10  1  0
 19 18  1  0
 20 19  1  0
 20  8  1  0
 21  9  2  0
 21  4  1  0
 23 22  1  0
 23  1  1  0
 24  6  1  0
 25 24  1  0
 26 25  1  0
 27 26  2  0
 28 27  1  0
 29 28  2  0
 30 29  1  0
 31 26  1  0
 31 30  2  0
 32 29  1  0
 33 32  1  0
 34 32  1  0
 35 32  1  0
  2 36  1  0
  3 37  1  0
  7 38  1  0
 11 39  1  0
 14 40  1  0
 14 41  1  0
 17 42  1  0
 19 43  1  0
 19 44  1  0
 20 45  1  0
 20 46  1  0
 21 47  1  0
 22 48  1  0
 22 49  1  0
 22 50  1  0
 25 51  1  0
 25 52  1  0
 27 53  1  0
 28 54  1  0
 30 55  1  0
 31 56  1  0
M  CHG  1   8   1
M  END
>  <score>  (3) 
-9.483

$$$$
=
     RDKit          3D

 56 61  0  0  0  0  0  0  0  0999 V2000
    2.4950   62.8190   71.6010 C   0  0  0  0  0  0  0  0  0  0  0  0
    1.3610   63.3110   70.9570 C   0  0  0  0  0  0  0  0  0  0  0  0
    0.0830   62.9200   71.3750 C   0  0  0  0  0  0  0  0  0  0  0  0
   -0.0860   62.0180   72.4380 C   0  0  0  0  0  0  0  0  0  0  0  0
    1.0430   61.5050   73.0880 C   0  0  0  0  0  0  0  0  0  0  0  0
    2.3250   61.9390   72.6830 C   0  0  0  0  0  0  0  0  0  0  0  0
    0.8450   60.5880   74.1250 C   0  0  0  0  0  0  0  0  0  0  0  0
   -0.3900   60.2160   74.5330 N   0  0  0  0  0  4  0  0  0  0  0  0
   -1.5070   60.7190   73.9360 C   0  0  0  0  0  0  0  0  0  0  0  0
   -2.8090   60.2420   74.4490 C   0  0  0  0  0  0  0  0  0  0  0  0
   -4.0090   60.9410   74.2150 C   0  0  0  0  0  0  0  0  0  0  0  0
   -5.1940   60.4160   74.6930 C   0  0  0  0  0  0  0  0  0  0  0  0
   -6.4240   60.9750   74.5400 O   0  0  0  0  0  0  0  0  0  0  0  0
   -7.2530   60.0050   75.2170 C   0  0  0  0  0  0  0  0  0  0  0  0
   -6.5000   58.8990   75.7600 O   0  0  0  0  0  0  0  0  0  0  0  0
   -5.2400   59.2360   75.3880 C   0  0  0  0  0  0  0  0  0  0  0  0
   -4.0990   58.5160   75.6560 C   0  0  0  0  0  0  0  0  0  0  0  0
   -2.8760   59.0330   75.1980 C   0  0  0  0  0  0  0  0  0  0  0  0
   -1.5980   58.2890   75.4730 C   0  0  0  0  0  0  0  0  0  0  0  0
   -0.4890   59.3000   75.7010 C   0  0  0  0  0  0  0  0  0  0  0  0
   -1.3560   61.6150   72.8660 C   0  0  0  0  0  0  0  0  0  0  0  0
    4.1500   63.0320   69.8930 C   0  0  0  0  0  0  0  0  0  0  0  0
    3.7860   63.1260   71.2660 O   0  0  0  0  0  0  0  0  0  0  0  0
    3.4180   61.4180   73.3430 O   0  0  0  0  0  0  0  0  0  0  0  0
    4.0450   60.3520   72.6060 C   0  0  0  0  0  0  0  0  0  0  0  0
    3.3580   59.0570   72.9790 C   0  0  0  0  0  0  0  0  0  0  0  0
    2.6630   58.3220   72.0080 C   0  0  0  0  0  0  0  0  0  0  0  0
    1.9500   57.1760   72.3640 C   0  0  0  0  0  0  0  0  0  0  0  0
    1.9210   56.7410   73.6980 C   0  0  0  0  0  0  0  0  0  0  0  0
    2.6250   57.4720   74.6650 C   0  0  0  0  0  0  0  0  0  0  0  0
    3.3400   58.6170   74.3100 C   0  0  0  0  0  0  0  0  0  0  0  0
    1.0910   55.5430   74.0940 C   0  0  0  0  0  0  0  0  0  0  0  0
    0.8970   55.4370   75.4340 F   0  0  0  0  0  0  0  0  0  0  0  0
    1.7030   54.3850   73.7090 F   0  0  0  0  0  0  0  0  0  0  0  0
   -0.1410   55.5240   73.5200 F   0  0  0  0  0  0  0  0  0  0  0  0
    1.4706   64.0107   70.1153 H   0  0  0  0  0  0  0  0  0  0  0  0
   -0.8020   63.3256   70.8629 H   0  0  0  0  0  0  0  0  0  0  0  0
    1.7232   60.1545   74.6259 H   0  0  0  0  0  0  0  0  0  0  0  0
   -4.0028   61.8907   73.6600 H   0  0  0  0  0  0  0  0  0  0  0  0
   -7.7796   60.5085   76.0411 H   0  0  0  0  0  0  0  0  0  0  0  0
   -7.9514   59.5935   74.4734 H   0  0  0  0  0  0  0  0  0  0  0  0
   -4.1429   57.5670   76.2105 H   0  0  0  0  0  0  0  0  0  0  0  0
   -1.7190   57.6631   76.3694 H   0  0  0  0  0  0  0  0  0  0  0  0
   -1.3479   57.6428   74.6187 H   0  0  0  0  0  0  0  0  0  0  0  0
   -0.7096   59.8854   76.6058 H   0  0  0  0  0  0  0  0  0  0  0  0
    0.4657   58.7680   75.8256 H   0  0  0  0  0  0  0  0  0  0  0  0
   -2.2490   62.0061   72.3565 H   0  0  0  0  0  0  0  0  0  0  0  0
    5.2123   62.7577   69.8132 H   0  0  0  0  0  0  0  0  0  0  0  0
    3.5349   62.2632   69.4024 H   0  0  0  0  0  0  0  0  0  0  0  0
    3.9841   64.0025   69.4024 H   0  0  0  0  0  0  0  0  0  0  0  0
    3.9395   60.5327   71.5261 H   0  0  0  0  0  0  0  0  0  0  0  0
    5.1166   60.2991   72.8487 H   0  0  0  0  0  0  0  0  0  0  0  0
    2.6798   58.6508   70.9584 H   0  0  0  0  0  0  0  0  0  0  0  0
    1.4068   56.6096   71.5932 H   0  0  0  0  0  0  0  0  0  0  0  0
    2.6138   57.1401   75.7137 H   0  0  0  0  0  0  0  0  0  0  0  0
    3.8924   59.1772   75.0788 H   0  0  0  0  0  0  0  0  0  0  0  0
  2  1  2  0
  3  2  1  0
  4  3  2  0
  5  4  1  0
  6  5  2  0
  6  1  1  0
  7  5  1  0
  8  7  2  0
  9  8  1  0
 10  9  1  0
 11 10  2  0
 12 11  1  0
 13 12  1  0
 14 13  1  0
 15 14  1  0
 16 15  1  0
 16 12  2  0
 17 16  1  0
 18 17  2  0
 18 10  1  0
 19 18  1  0
 20 19  1  0
 20  8  1  0
 21  9  2  0
 21  4  1  0
 23 22  1  0
 23  1  1  0
 24  6  1  0
 25 24  1  0
 26 25  1  0
 27 26  2  0
 28 27  1  0
 29 28  2  0
 30 29  1  0
 31 26  1  0
 31 30  2  0
 32 29  1  0
 33 32  1  0
 34 32  1  0
 35 32  1  0
  2 36  1  0
  3 37  1  0
  7 38  1  0
 11 39  1  0
 14 40  1  0
 14 41  1  0
 17 42  1  0
 19 43  1  0
 19 44  1  0
 20 45  1  0
 20 46  1  0
 21 47  1  0
 22 48  1  0
 22 49  1  0
 22 50  1  0
 25 51  1  0
 25 52  1  0
 27 53  1  0
 28 54  1  0
 30 55  1  0
 31 56  1  0
M  CHG  1   8   1
M  END
>  <score>  (4) 
-9.128

$$$$
=
     RDKit          3D

 56 61  0  0  0  0  0  0  0  0999 V2000
    0.9910   56.4340   73.6570 C   0  0  0  0  0  0  0  0  0  0  0  0
   -0.3210   56.1410   74.0260 C   0  0  0  0  0  0  0  0  0  0  0  0
   -1.1730   57.1540   74.4810 C   0  0  0  0  0  0  0  0  0  0  0  0
   -0.7260   58.4800   74.5900 C   0  0  0  0  0  0  0  0  0  0  0  0
    0.5930   58.7910   74.2350 C   0  0  0  0  0  0  0  0  0  0  0  0
    1.4300   57.7660   73.7370 C   0  0  0  0  0  0  0  0  0  0  0  0
    1.0190   60.1150   74.3780 C   0  0  0  0  0  0  0  0  0  0  0  0
    0.1940   61.0950   74.8120 N   0  0  0  0  0  4  0  0  0  0  0  0
   -1.1020   60.8270   75.1400 C   0  0  0  0  0  0  0  0  0  0  0  0
   -1.9190   61.9650   75.6120 C   0  0  0  0  0  0  0  0  0  0  0  0
   -3.3270   61.9300   75.6080 C   0  0  0  0  0  0  0  0  0  0  0  0
   -4.0250   63.0160   76.1000 C   0  0  0  0  0  0  0  0  0  0  0  0
   -5.3790   63.1220   76.1630 O   0  0  0  0  0  0  0  0  0  0  0  0
   -5.5260   64.4310   76.7580 C   0  0  0  0  0  0  0  0  0  0  0  0
   -4.2610   65.0730   77.0270 O   0  0  0  0  0  0  0  0  0  0  0  0
   -3.3910   64.1280   76.5910 C   0  0  0  0  0  0  0  0  0  0  0  0
   -2.0200   64.2220   76.6090 C   0  0  0  0  0  0  0  0  0  0  0  0
   -1.2820   63.1410   76.1010 C   0  0  0  0  0  0  0  0  0  0  0  0
    0.2210   63.1990   76.0890 C   0  0  0  0  0  0  0  0  0  0  0  0
    0.7230   62.4850   74.8480 C   0  0  0  0  0  0  0  0  0  0  0  0
   -1.5630   59.5050   75.0460 C   0  0  0  0  0  0  0  0  0  0  0  0
    2.1150   54.3560   74.0040 C   0  0  0  0  0  0  0  0  0  0  0  0
    1.9060   55.5200   73.2110 O   0  0  0  0  0  0  0  0  0  0  0  0
    2.7220   58.1020   73.3940 O   0  0  0  0  0  0  0  0  0  0  0  0
    2.9550   58.0040   71.9770 C   0  0  0  0  0  0  0  0  0  0  0  0
    3.4260   59.3540   71.4840 C   0  0  0  0  0  0  0  0  0  0  0  0
    3.9340   60.2970   72.3880 C   0  0  0  0  0  0  0  0  0  0  0  0
    4.2840   61.5770   71.9550 C   0  0  0  0  0  0  0  0  0  0  0  0
    4.1350   61.9380   70.6070 C   0  0  0  0  0  0  0  0  0  0  0  0
    3.6360   60.9890   69.7020 C   0  0  0  0  0  0  0  0  0  0  0  0
    3.2880   59.7080   70.1350 C   0  0  0  0  0  0  0  0  0  0  0  0
    4.4450   63.3440   70.1520 C   0  0  0  0  0  0  0  0  0  0  0  0
    3.5560   64.2670   70.6010 F   0  0  0  0  0  0  0  0  0  0  0  0
    4.4160   63.4250   68.7890 F   0  0  0  0  0  0  0  0  0  0  0  0
    5.6780   63.7750   70.5260 F   0  0  0  0  0  0  0  0  0  0  0  0
   -0.6892   55.1066   73.9591 H   0  0  0  0  0  0  0  0  0  0  0  0
   -2.2087   56.9071   74.7574 H   0  0  0  0  0  0  0  0  0  0  0  0
    2.0602   60.3681   74.1292 H   0  0  0  0  0  0  0  0  0  0  0  0
   -3.8627   61.0515   75.2191 H   0  0  0  0  0  0  0  0  0  0  0  0
   -6.1023   65.0664   76.0695 H   0  0  0  0  0  0  0  0  0  0  0  0
   -6.0398   64.2989   77.7216 H   0  0  0  0  0  0  0  0  0  0  0  0
   -1.5172   65.1151   77.0084 H   0  0  0  0  0  0  0  0  0  0  0  0
    0.5513   64.2481   76.0721 H   0  0  0  0  0  0  0  0  0  0  0  0
    0.6230   62.7135   76.9904 H   0  0  0  0  0  0  0  0  0  0  0  0
    0.3835   63.0273   73.9532 H   0  0  0  0  0  0  0  0  0  0  0  0
    1.8223   62.4526   74.8697 H   0  0  0  0  0  0  0  0  0  0  0  0
   -2.5981   59.2706   75.3351 H   0  0  0  0  0  0  0  0  0  0  0  0
    2.0667   54.6248   75.0696 H   0  0  0  0  0  0  0  0  0  0  0  0
    1.3359   53.6133   73.7775 H   0  0  0  0  0  0  0  0  0  0  0  0
    3.1039   53.9307   73.7775 H   0  0  0  0  0  0  0  0  0  0  0  0
    3.7254   57.2446   71.7774 H   0  0  0  0  0  0  0  0  0  0  0  0
    2.0307   57.7100   71.4582 H   0  0  0  0  0  0  0  0  0  0  0  0
    4.0578   60.0263   73.4469 H   0  0  0  0  0  0  0  0  0  0  0  0
    4.6795   62.3080   72.6755 H   0  0  0  0  0  0  0  0  0  0  0  0
    3.5179   61.2566   68.6416 H   0  0  0  0  0  0  0  0  0  0  0  0
    2.9033   58.9725   69.4132 H   0  0  0  0  0  0  0  0  0  0  0  0
  2  1  2  0
  3  2  1  0
  4  3  2  0
  5  4  1  0
  6  5  2  0
  6  1  1  0
  7  5  1  0
  8  7  2  0
  9  8  1  0
 10  9  1  0
 11 10  2  0
 12 11  1  0
 13 12  1  0
 14 13  1  0
 15 14  1  0
 16 15  1  0
 16 12  2  0
 17 16  1  0
 18 17  2  0
 18 10  1  0
 19 18  1  0
 20 19  1  0
 20  8  1  0
 21  9  2  0
 21  4  1  0
 23 22  1  0
 23  1  1  0
 24  6  1  0
 25 24  1  0
 26 25  1  0
 27 26  2  0
 28 27  1  0
 29 28  2  0
 30 29  1  0
 31 26  1  0
 31 30  2  0
 32 29  1  0
 33 32  1  0
 34 32  1  0
 35 32  1  0
  2 36  1  0
  3 37  1  0
  7 38  1  0
 11 39  1  0
 14 40  1  0
 14 41  1  0
 17 42  1  0
 19 43  1  0
 19 44  1  0
 20 45  1  0
 20 46  1  0
 21 47  1  0
 22 48  1  0
 22 49  1  0
 22 50  1  0
 25 51  1  0
 25 52  1  0
 27 53  1  0
 28 54  1  0
 30 55  1  0
 31 56  1  0
M  CHG  1   8   1
M  END
>  <score>  (5) 
-9.038

$$$$
=
     RDKit          3D

 56 61  0  0  0  0  0  0  0  0999 V2000
    3.7780   61.1650   70.2700 C   0  0  0  0  0  0  0  0  0  0  0  0
    3.7950   59.9530   69.5840 C   0  0  0  0  0  0  0  0  0  0  0  0
    3.4060   58.7700   70.2250 C   0  0  0  0  0  0  0  0  0  0  0  0
    3.0050   58.7750   71.5710 C   0  0  0  0  0  0  0  0  0  0  0  0
    2.9940   59.9830   72.2780 C   0  0  0  0  0  0  0  0  0  0  0  0
    3.3490   61.1750   71.6080 C   0  0  0  0  0  0  0  0  0  0  0  0
    2.6160   59.9540   73.6240 C   0  0  0  0  0  0  0  0  0  0  0  0
    2.2340   58.8120   74.2420 N   0  0  0  0  0  4  0  0  0  0  0  0
    2.2100   57.6260   73.5710 C   0  0  0  0  0  0  0  0  0  0  0  0
    1.7860   56.4350   74.3370 C   0  0  0  0  0  0  0  0  0  0  0  0
    1.3440   55.2550   73.7070 C   0  0  0  0  0  0  0  0  0  0  0  0
    1.0000   54.1680   74.4860 C   0  0  0  0  0  0  0  0  0  0  0  0
    0.5630   52.9690   74.0200 O   0  0  0  0  0  0  0  0  0  0  0  0
    0.3750   52.2440   75.2560 C   0  0  0  0  0  0  0  0  0  0  0  0
    0.6970   53.0280   76.4240 O   0  0  0  0  0  0  0  0  0  0  0  0
    1.0750   54.2000   75.8550 C   0  0  0  0  0  0  0  0  0  0  0  0
    1.4890   55.3270   76.5240 C   0  0  0  0  0  0  0  0  0  0  0  0
    1.8300   56.4560   75.7600 C   0  0  0  0  0  0  0  0  0  0  0  0
    2.2800   57.7170   76.4450 C   0  0  0  0  0  0  0  0  0  0  0  0
    1.7700   58.9060   75.6520 C   0  0  0  0  0  0  0  0  0  0  0  0
    2.6160   57.6020   72.2270 C   0  0  0  0  0  0  0  0  0  0  0  0
    3.6480   62.7100   68.4540 C   0  0  0  0  0  0  0  0  0  0  0  0
    4.1480   62.3730   69.7440 O   0  0  0  0  0  0  0  0  0  0  0  0
    3.3260   62.3490   72.3300 O   0  0  0  0  0  0  0  0  0  0  0  0
    2.2470   63.2150   71.9330 C   0  0  0  0  0  0  0  0  0  0  0  0
    1.0150   62.8190   72.7170 C   0  0  0  0  0  0  0  0  0  0  0  0
    0.9210   63.1200   74.0820 C   0  0  0  0  0  0  0  0  0  0  0  0
   -0.1700   62.6760   74.8310 C   0  0  0  0  0  0  0  0  0  0  0  0
   -1.1910   61.9250   74.2270 C   0  0  0  0  0  0  0  0  0  0  0  0
   -1.0990   61.6350   72.8580 C   0  0  0  0  0  0  0  0  0  0  0  0
   -0.0090   62.0810   72.1080 C   0  0  0  0  0  0  0  0  0  0  0  0
   -2.3340   61.3840   75.0520 C   0  0  0  0  0  0  0  0  0  0  0  0
   -2.3690   61.8740   76.3180 F   0  0  0  0  0  0  0  0  0  0  0  0
   -2.2380   60.0280   75.1750 F   0  0  0  0  0  0  0  0  0  0  0  0
   -3.5560   61.6250   74.5070 F   0  0  0  0  0  0  0  0  0  0  0  0
    4.1159   59.9247   68.5322 H   0  0  0  0  0  0  0  0  0  0  0  0
    3.4147   57.8228   69.6658 H   0  0  0  0  0  0  0  0  0  0  0  0
    2.6296   60.8910   74.2001 H   0  0  0  0  0  0  0  0  0  0  0  0
    1.2739   55.2004   72.6106 H   0  0  0  0  0  0  0  0  0  0  0  0
   -0.6777   51.9318   75.3226 H   0  0  0  0  0  0  0  0  0  0  0  0
    1.0585   51.3823   75.2393 H   0  0  0  0  0  0  0  0  0  0  0  0
    1.5514   55.3446   77.6221 H   0  0  0  0  0  0  0  0  0  0  0  0
    1.8723   57.7500   77.4661 H   0  0  0  0  0  0  0  0  0  0  0  0
    3.3783   57.7442   76.4993 H   0  0  0  0  0  0  0  0  0  0  0  0
    0.6703   58.9143   75.6741 H   0  0  0  0  0  0  0  0  0  0  0  0
    2.1584   59.8327   76.0996 H   0  0  0  0  0  0  0  0  0  0  0  0
    2.6284   56.6467   71.6818 H   0  0  0  0  0  0  0  0  0  0  0  0
    2.7402   63.3219   68.5610 H   0  0  0  0  0  0  0  0  0  0  0  0
    4.4108   63.2790   67.9023 H   0  0  0  0  0  0  0  0  0  0  0  0
    3.4068   61.7895   67.9023 H   0  0  0  0  0  0  0  0  0  0  0  0
    2.5083   64.2609   72.1519 H   0  0  0  0  0  0  0  0  0  0  0  0
    2.0590   63.1200   70.8534 H   0  0  0  0  0  0  0  0  0  0  0  0
    1.7124   63.7103   74.5669 H   0  0  0  0  0  0  0  0  0  0  0  0
   -0.2303   62.9163   75.9027 H   0  0  0  0  0  0  0  0  0  0  0  0
   -1.8932   61.0506   72.3704 H   0  0  0  0  0  0  0  0  0  0  0  0
    0.0463   61.8519   71.0335 H   0  0  0  0  0  0  0  0  0  0  0  0
  2  1  2  0
  3  2  1  0
  4  3  2  0
  5  4  1  0
  6  5  2  0
  6  1  1  0
  7  5  1  0
  8  7  2  0
  9  8  1  0
 10  9  1  0
 11 10  2  0
 12 11  1  0
 13 12  1  0
 14 13  1  0
 15 14  1  0
 16 15  1  0
 16 12  2  0
 17 16  1  0
 18 17  2  0
 18 10  1  0
 19 18  1  0
 20 19  1  0
 20  8  1  0
 21  9  2  0
 21  4  1  0
 23 22  1  0
 23  1  1  0
 24  6  1  0
 25 24  1  0
 26 25  1  0
 27 26  2  0
 28 27  1  0
 29 28  2  0
 30 29  1  0
 31 26  1  0
 31 30  2  0
 32 29  1  0
 33 32  1  0
 34 32  1  0
 35 32  1  0
  2 36  1  0
  3 37  1  0
  7 38  1  0
 11 39  1  0
 14 40  1  0
 14 41  1  0
 17 42  1  0
 19 43  1  0
 19 44  1  0
 20 45  1  0
 20 46  1  0
 21 47  1  0
 22 48  1  0
 22 49  1  0
 22 50  1  0
 25 51  1  0
 25 52  1  0
 27 53  1  0
 28 54  1  0
 30 55  1  0
 31 56  1  0
M  CHG  1   8   1
M  END
>  <score>  (6) 
-9.025

$$$$
=
     RDKit          3D

 56 61  0  0  0  0  0  0  0  0999 V2000
   -3.3510   57.1700   75.7770 C   0  0  0  0  0  0  0  0  0  0  0  0
   -2.2650   56.3260   75.5540 C   0  0  0  0  0  0  0  0  0  0  0  0
   -1.1170   56.8030   74.9100 C   0  0  0  0  0  0  0  0  0  0  0  0
   -1.0370   58.1320   74.4650 C   0  0  0  0  0  0  0  0  0  0  0  0
   -2.1240   58.9910   74.6710 C   0  0  0  0  0  0  0  0  0  0  0  0
   -3.2610   58.5080   75.3580 C   0  0  0  0  0  0  0  0  0  0  0  0
   -2.0270   60.3010   74.1930 C   0  0  0  0  0  0  0  0  0  0  0  0
   -0.9150   60.7650   73.5780 N   0  0  0  0  0  4  0  0  0  0  0  0
    0.1680   59.9590   73.3880 C   0  0  0  0  0  0  0  0  0  0  0  0
    1.3300   60.5570   72.6970 C   0  0  0  0  0  0  0  0  0  0  0  0
    2.6210   59.9980   72.7770 C   0  0  0  0  0  0  0  0  0  0  0  0
    3.6520   60.5890   72.0740 C   0  0  0  0  0  0  0  0  0  0  0  0
    4.9420   60.1600   72.0530 O   0  0  0  0  0  0  0  0  0  0  0  0
    5.5420   61.1330   71.1700 C   0  0  0  0  0  0  0  0  0  0  0  0
    4.6010   62.1190   70.6930 O   0  0  0  0  0  0  0  0  0  0  0  0
    3.4600   61.7050   71.3000 C   0  0  0  0  0  0  0  0  0  0  0  0
    2.2260   62.3000   71.1930 C   0  0  0  0  0  0  0  0  0  0  0  0
    1.1600   61.7320   71.9100 C   0  0  0  0  0  0  0  0  0  0  0  0
   -0.2090   62.3510   71.8340 C   0  0  0  0  0  0  0  0  0  0  0  0
   -0.8840   62.1990   73.1850 C   0  0  0  0  0  0  0  0  0  0  0  0
    0.1020   58.6250   73.8180 C   0  0  0  0  0  0  0  0  0  0  0  0
   -4.4790   56.5120   77.7770 C   0  0  0  0  0  0  0  0  0  0  0  0
   -4.5220   56.8030   76.3840 O   0  0  0  0  0  0  0  0  0  0  0  0
   -4.3140   59.3760   75.5470 O   0  0  0  0  0  0  0  0  0  0  0  0
   -5.4520   59.0430   74.7310 C   0  0  0  0  0  0  0  0  0  0  0  0
   -6.1920   60.3230   74.4130 C   0  0  0  0  0  0  0  0  0  0  0  0
   -6.0220   61.4560   75.2210 C   0  0  0  0  0  0  0  0  0  0  0  0
   -6.7720   62.6100   74.9900 C   0  0  0  0  0  0  0  0  0  0  0  0
   -7.7040   62.6550   73.9410 C   0  0  0  0  0  0  0  0  0  0  0  0
   -7.8650   61.5240   73.1270 C   0  0  0  0  0  0  0  0  0  0  0  0
   -7.1140   60.3700   73.3580 C   0  0  0  0  0  0  0  0  0  0  0  0
   -8.5660   63.8780   73.7360 C   0  0  0  0  0  0  0  0  0  0  0  0
   -9.6550   63.6490   72.9580 F   0  0  0  0  0  0  0  0  0  0  0  0
   -7.8580   64.8650   73.1120 F   0  0  0  0  0  0  0  0  0  0  0  0
   -9.0220   64.4200   74.8950 F   0  0  0  0  0  0  0  0  0  0  0  0
   -2.3099   55.2783   75.8860 H   0  0  0  0  0  0  0  0  0  0  0  0
   -0.2648   56.1261   74.7503 H   0  0  0  0  0  0  0  0  0  0  0  0
   -2.8845   60.9779   74.3214 H   0  0  0  0  0  0  0  0  0  0  0  0
    2.8048   59.1037   73.3906 H   0  0  0  0  0  0  0  0  0  0  0  0
    6.3463   61.6504   71.7135 H   0  0  0  0  0  0  0  0  0  0  0  0
    5.9223   60.5899   70.2923 H   0  0  0  0  0  0  0  0  0  0  0  0
    2.0778   63.1919   70.5664 H   0  0  0  0  0  0  0  0  0  0  0  0
   -0.1199   63.4180   71.5821 H   0  0  0  0  0  0  0  0  0  0  0  0
   -0.8055   61.8504   71.0571 H   0  0  0  0  0  0  0  0  0  0  0  0
   -0.3238   62.7716   73.9389 H   0  0  0  0  0  0  0  0  0  0  0  0
   -1.9144   62.5784   73.1193 H   0  0  0  0  0  0  0  0  0  0  0  0
    0.9582   57.9567   73.6440 H   0  0  0  0  0  0  0  0  0  0  0  0
   -4.6163   57.4409   78.3500 H   0  0  0  0  0  0  0  0  0  0  0  0
   -5.2823   55.8039   78.0286 H   0  0  0  0  0  0  0  0  0  0  0  0
   -3.5053   56.0664   78.0286 H   0  0  0  0  0  0  0  0  0  0  0  0
   -5.1156   58.5653   73.7990 H   0  0  0  0  0  0  0  0  0  0  0  0
   -6.1122   58.3433   75.2645 H   0  0  0  0  0  0  0  0  0  0  0  0
   -5.2918   61.4352   76.0434 H   0  0  0  0  0  0  0  0  0  0  0  0
   -6.6320   63.4905   75.6343 H   0  0  0  0  0  0  0  0  0  0  0  0
   -8.5893   61.5465   72.2994 H   0  0  0  0  0  0  0  0  0  0  0  0
   -7.2465   59.4923   72.7083 H   0  0  0  0  0  0  0  0  0  0  0  0
  2  1  2  0
  3  2  1  0
  4  3  2  0
  5  4  1  0
  6  5  2  0
  6  1  1  0
  7  5  1  0
  8  7  2  0
  9  8  1  0
 10  9  1  0
 11 10  2  0
 12 11  1  0
 13 12  1  0
 14 13  1  0
 15 14  1  0
 16 15  1  0
 16 12  2  0
 17 16  1  0
 18 17  2  0
 18 10  1  0
 19 18  1  0
 20 19  1  0
 20  8  1  0
 21  9  2  0
 21  4  1  0
 23 22  1  0
 23  1  1  0
 24  6  1  0
 25 24  1  0
 26 25  1  0
 27 26  2  0
 28 27  1  0
 29 28  2  0
 30 29  1  0
 31 26  1  0
 31 30  2  0
 32 29  1  0
 33 32  1  0
 34 32  1  0
 35 32  1  0
  2 36  1  0
  3 37  1  0
  7 38  1  0
 11 39  1  0
 14 40  1  0
 14 41  1  0
 17 42  1  0
 19 43  1  0
 19 44  1  0
 20 45  1  0
 20 46  1  0
 21 47  1  0
 22 48  1  0
 22 49  1  0
 22 50  1  0
 25 51  1  0
 25 52  1  0
 27 53  1  0
 28 54  1  0
 30 55  1  0
 31 56  1  0
M  CHG  1   8   1
M  END
>  <score>  (7) 
-8.838

$$$$
=
     RDKit          3D

 56 61  0  0  0  0  0  0  0  0999 V2000
    0.8190   55.9300   74.2260 C   0  0  0  0  0  0  0  0  0  0  0  0
   -0.3420   55.2670   74.6190 C   0  0  0  0  0  0  0  0  0  0  0  0
   -1.5180   55.9840   74.8680 C   0  0  0  0  0  0  0  0  0  0  0  0
   -1.5540   57.3810   74.7400 C   0  0  0  0  0  0  0  0  0  0  0  0
   -0.3940   58.0650   74.3570 C   0  0  0  0  0  0  0  0  0  0  0  0
    0.7760   57.3260   74.0690 C   0  0  0  0  0  0  0  0  0  0  0  0
   -0.4510   59.4590   74.2630 C   0  0  0  0  0  0  0  0  0  0  0  0
   -1.5900   60.1510   74.4960 N   0  0  0  0  0  4  0  0  0  0  0  0
   -2.7410   59.5100   74.8450 C   0  0  0  0  0  0  0  0  0  0  0  0
   -3.9290   60.3570   75.0880 C   0  0  0  0  0  0  0  0  0  0  0  0
   -5.2380   59.8370   75.0670 C   0  0  0  0  0  0  0  0  0  0  0  0
   -6.2970   60.6810   75.3390 C   0  0  0  0  0  0  0  0  0  0  0  0
   -7.6080   60.3210   75.3590 O   0  0  0  0  0  0  0  0  0  0  0  0
   -8.2340   61.5770   75.7020 C   0  0  0  0  0  0  0  0  0  0  0  0
   -7.2850   62.6530   75.8720 O   0  0  0  0  0  0  0  0  0  0  0  0
   -6.1160   62.0080   75.6300 C   0  0  0  0  0  0  0  0  0  0  0  0
   -4.8620   62.5720   75.6550 C   0  0  0  0  0  0  0  0  0  0  0  0
   -3.7650   61.7440   75.3650 C   0  0  0  0  0  0  0  0  0  0  0  0
   -2.3740   62.3150   75.3680 C   0  0  0  0  0  0  0  0  0  0  0  0
   -1.5650   61.6230   74.2870 C   0  0  0  0  0  0  0  0  0  0  0  0
   -2.7210   58.1140   74.9870 C   0  0  0  0  0  0  0  0  0  0  0  0
    2.2640   54.0600   74.5700 C   0  0  0  0  0  0  0  0  0  0  0  0
    2.0210   55.3290   73.9700 O   0  0  0  0  0  0  0  0  0  0  0  0
    1.9020   58.0260   73.6930 O   0  0  0  0  0  0  0  0  0  0  0  0
    2.1390   57.9590   72.2740 C   0  0  0  0  0  0  0  0  0  0  0  0
    2.6850   59.2960   71.8260 C   0  0  0  0  0  0  0  0  0  0  0  0
    2.0020   60.4790   72.1430 C   0  0  0  0  0  0  0  0  0  0  0  0
    2.4500   61.7070   71.6540 C   0  0  0  0  0  0  0  0  0  0  0  0
    3.5930   61.7770   70.8420 C   0  0  0  0  0  0  0  0  0  0  0  0
    4.2800   60.5930   70.5360 C   0  0  0  0  0  0  0  0  0  0  0  0
    3.8330   59.3650   71.0260 C   0  0  0  0  0  0  0  0  0  0  0  0
    4.0350   63.0960   70.2550 C   0  0  0  0  0  0  0  0  0  0  0  0
    5.2810   63.4720   70.6430 F   0  0  0  0  0  0  0  0  0  0  0  0
    3.1990   64.1010   70.6480 F   0  0  0  0  0  0  0  0  0  0  0  0
    4.0290   63.1130   68.8960 F   0  0  0  0  0  0  0  0  0  0  0  0
   -0.3342   54.1731   74.7343 H   0  0  0  0  0  0  0  0  0  0  0  0
   -2.4280   55.4441   75.1687 H   0  0  0  0  0  0  0  0  0  0  0  0
    0.4605   60.0113   73.9906 H   0  0  0  0  0  0  0  0  0  0  0  0
   -5.4140   58.7757   74.8376 H   0  0  0  0  0  0  0  0  0  0  0  0
   -8.9340   61.8506   74.8988 H   0  0  0  0  0  0  0  0  0  0  0  0
   -8.7479   61.4365   76.6644 H   0  0  0  0  0  0  0  0  0  0  0  0
   -4.7226   63.6366   75.8942 H   0  0  0  0  0  0  0  0  0  0  0  0
   -2.4163   63.3953   75.1650 H   0  0  0  0  0  0  0  0  0  0  0  0
   -1.9041   62.1553   76.3497 H   0  0  0  0  0  0  0  0  0  0  0  0
   -1.9959   61.8584   73.3027 H   0  0  0  0  0  0  0  0  0  0  0  0
   -0.5243   61.9764   74.3332 H   0  0  0  0  0  0  0  0  0  0  0  0
   -3.6359   57.5878   75.2970 H   0  0  0  0  0  0  0  0  0  0  0  0
    2.2444   54.1624   75.6650 H   0  0  0  0  0  0  0  0  0  0  0  0
    1.4855   53.3500   74.2541 H   0  0  0  0  0  0  0  0  0  0  0  0
    3.2497   53.6878   74.2541 H   0  0  0  0  0  0  0  0  0  0  0  0
    2.8688   57.1657   72.0548 H   0  0  0  0  0  0  0  0  0  0  0  0
    1.2038   57.7311   71.7415 H   0  0  0  0  0  0  0  0  0  0  0  0
    1.1071   60.4388   72.7814 H   0  0  0  0  0  0  0  0  0  0  0  0
    1.9031   62.6273   71.9069 H   0  0  0  0  0  0  0  0  0  0  0  0
    5.1794   60.6327   69.9040 H   0  0  0  0  0  0  0  0  0  0  0  0
    4.3856   58.4455   70.7825 H   0  0  0  0  0  0  0  0  0  0  0  0
  2  1  2  0
  3  2  1  0
  4  3  2  0
  5  4  1  0
  6  5  2  0
  6  1  1  0
  7  5  1  0
  8  7  2  0
  9  8  1  0
 10  9  1  0
 11 10  2  0
 12 11  1  0
 13 12  1  0
 14 13  1  0
 15 14  1  0
 16 15  1  0
 16 12  2  0
 17 16  1  0
 18 17  2  0
 18 10  1  0
 19 18  1  0
 20 19  1  0
 20  8  1  0
 21  9  2  0
 21  4  1  0
 23 22  1  0
 23  1  1  0
 24  6  1  0
 25 24  1  0
 26 25  1  0
 27 26  2  0
 28 27  1  0
 29 28  2  0
 30 29  1  0
 31 26  1  0
 31 30  2  0
 32 29  1  0
 33 32  1  0
 34 32  1  0
 35 32  1  0
  2 36  1  0
  3 37  1  0
  7 38  1  0
 11 39  1  0
 14 40  1  0
 14 41  1  0
 17 42  1  0
 19 43  1  0
 19 44  1  0
 20 45  1  0
 20 46  1  0
 21 47  1  0
 22 48  1  0
 22 49  1  0
 22 50  1  0
 25 51  1  0
 25 52  1  0
 27 53  1  0
 28 54  1  0
 30 55  1  0
 31 56  1  0
M  CHG  1   8   1
M  END
>  <score>  (8) 
-8.715

$$$$
=
     RDKit          3D

 56 61  0  0  0  0  0  0  0  0999 V2000
    1.6480   60.6950   72.5730 C   0  0  0  0  0  0  0  0  0  0  0  0
    0.9240   61.8050   72.1430 C   0  0  0  0  0  0  0  0  0  0  0  0
   -0.4220   61.9550   72.4990 C   0  0  0  0  0  0  0  0  0  0  0  0
   -1.0750   60.9910   73.2820 C   0  0  0  0  0  0  0  0  0  0  0  0
   -0.3650   59.8630   73.7130 C   0  0  0  0  0  0  0  0  0  0  0  0
    1.0030   59.7440   73.3810 C   0  0  0  0  0  0  0  0  0  0  0  0
   -1.0480   58.9050   74.4690 C   0  0  0  0  0  0  0  0  0  0  0  0
   -2.3460   59.0530   74.8200 N   0  0  0  0  0  4  0  0  0  0  0  0
   -3.0540   60.1530   74.4360 C   0  0  0  0  0  0  0  0  0  0  0  0
   -4.4690   60.2170   74.8620 C   0  0  0  0  0  0  0  0  0  0  0  0
   -5.1920   61.4250   74.8840 C   0  0  0  0  0  0  0  0  0  0  0  0
   -6.5220   61.4030   75.2570 C   0  0  0  0  0  0  0  0  0  0  0  0
   -7.3430   62.4850   75.3220 O   0  0  0  0  0  0  0  0  0  0  0  0
   -8.5780   61.8690   75.7470 C   0  0  0  0  0  0  0  0  0  0  0  0
   -8.4630   60.4410   75.9320 O   0  0  0  0  0  0  0  0  0  0  0  0
   -7.1610   60.2410   75.6060 C   0  0  0  0  0  0  0  0  0  0  0  0
   -6.5030   59.0340   75.6120 C   0  0  0  0  0  0  0  0  0  0  0  0
   -5.1450   59.0260   75.2550 C   0  0  0  0  0  0  0  0  0  0  0  0
   -4.3770   57.7330   75.2550 C   0  0  0  0  0  0  0  0  0  0  0  0
   -2.9530   58.0170   75.6970 C   0  0  0  0  0  0  0  0  0  0  0  0
   -2.4200   61.1240   73.6450 C   0  0  0  0  0  0  0  0  0  0  0  0
    3.9470   61.2150   72.9520 C   0  0  0  0  0  0  0  0  0  0  0  0
    2.9590   60.4460   72.2730 O   0  0  0  0  0  0  0  0  0  0  0  0
    1.6760   58.6240   73.8210 O   0  0  0  0  0  0  0  0  0  0  0  0
    1.8670   57.6540   72.7740 C   0  0  0  0  0  0  0  0  0  0  0  0
    1.3730   56.3160   73.2790 C   0  0  0  0  0  0  0  0  0  0  0  0
    0.0010   56.0940   73.4610 C   0  0  0  0  0  0  0  0  0  0  0  0
   -0.4540   54.8960   74.0130 C   0  0  0  0  0  0  0  0  0  0  0  0
    0.4540   53.8940   74.3900 C   0  0  0  0  0  0  0  0  0  0  0  0
    1.8260   54.1150   74.1970 C   0  0  0  0  0  0  0  0  0  0  0  0
    2.2810   55.3130   73.6430 C   0  0  0  0  0  0  0  0  0  0  0  0
   -0.0340   52.6280   75.0540 C   0  0  0  0  0  0  0  0  0  0  0  0
   -0.7530   52.8510   76.1840 F   0  0  0  0  0  0  0  0  0  0  0  0
    1.0210   51.8450   75.4270 F   0  0  0  0  0  0  0  0  0  0  0  0
   -0.8060   51.8560   74.2450 F   0  0  0  0  0  0  0  0  0  0  0  0
    1.4128   62.5684   71.5199 H   0  0  0  0  0  0  0  0  0  0  0  0
   -0.9761   62.8425   72.1595 H   0  0  0  0  0  0  0  0  0  0  0  0
   -0.5112   57.9999   74.7893 H   0  0  0  0  0  0  0  0  0  0  0  0
   -4.7051   62.3721   74.6083 H   0  0  0  0  0  0  0  0  0  0  0  0
   -8.8855   62.3222   76.7010 H   0  0  0  0  0  0  0  0  0  0  0  0
   -9.3202   62.0388   74.9531 H   0  0  0  0  0  0  0  0  0  0  0  0
   -7.0233   58.1048   75.8875 H   0  0  0  0  0  0  0  0  0  0  0  0
   -4.8467   57.0227   75.9513 H   0  0  0  0  0  0  0  0  0  0  0  0
   -4.3775   57.2950   74.2460 H   0  0  0  0  0  0  0  0  0  0  0  0
   -2.9591   58.3774   76.7363 H   0  0  0  0  0  0  0  0  0  0  0  0
   -2.3615   57.0922   75.6266 H   0  0  0  0  0  0  0  0  0  0  0  0
   -2.9887   62.0023   73.3055 H   0  0  0  0  0  0  0  0  0  0  0  0
    3.8112   61.1093   74.0385 H   0  0  0  0  0  0  0  0  0  0  0  0
    4.9481   60.8561   72.6710 H   0  0  0  0  0  0  0  0  0  0  0  0
    3.8448   62.2736   72.6710 H   0  0  0  0  0  0  0  0  0  0  0  0
    1.2955   57.9503   71.8821 H   0  0  0  0  0  0  0  0  0  0  0  0
    2.9310   57.5902   72.5022 H   0  0  0  0  0  0  0  0  0  0  0  0
   -0.7217   56.8693   73.1667 H   0  0  0  0  0  0  0  0  0  0  0  0
   -1.5331   54.7354   74.1539 H   0  0  0  0  0  0  0  0  0  0  0  0
    2.5493   53.3378   74.4846 H   0  0  0  0  0  0  0  0  0  0  0  0
    3.3591   55.4704   73.4913 H   0  0  0  0  0  0  0  0  0  0  0  0
  2  1  2  0
  3  2  1  0
  4  3  2  0
  5  4  1  0
  6  5  2  0
  6  1  1  0
  7  5  1  0
  8  7  2  0
  9  8  1  0
 10  9  1  0
 11 10  2  0
 12 11  1  0
 13 12  1  0
 14 13  1  0
 15 14  1  0
 16 15  1  0
 16 12  2  0
 17 16  1  0
 18 17  2  0
 18 10  1  0
 19 18  1  0
 20 19  1  0
 20  8  1  0
 21  9  2  0
 21  4  1  0
 23 22  1  0
 23  1  1  0
 24  6  1  0
 25 24  1  0
 26 25  1  0
 27 26  2  0
 28 27  1  0
 29 28  2  0
 30 29  1  0
 31 26  1  0
 31 30  2  0
 32 29  1  0
 33 32  1  0
 34 32  1  0
 35 32  1  0
  2 36  1  0
  3 37  1  0
  7 38  1  0
 11 39  1  0
 14 40  1  0
 14 41  1  0
 17 42  1  0
 19 43  1  0
 19 44  1  0
 20 45  1  0
 20 46  1  0
 21 47  1  0
 22 48  1  0
 22 49  1  0
 22 50  1  0
 25 51  1  0
 25 52  1  0
 27 53  1  0
 28 54  1  0
 30 55  1  0
 31 56  1  0
M  CHG  1   8   1
M  END
>  <score>  (9) 
-8.415

$$$$
