=
     RDKit          3D

 43 46  0  0  0  0  0  0  0  0999 V2000
    5.2120   70.3070   67.7010 C   0  0  0  0  0  0  0  0  0  0  0  0
    4.3400   70.3960   68.7840 C   0  0  0  0  0  0  0  0  0  0  0  0
    3.0010   69.9770   68.6670 C   0  0  0  0  0  0  0  0  0  0  0  0
    2.5020   69.4120   67.4770 C   0  0  0  0  0  0  0  0  0  0  0  0
    3.4020   69.2740   66.4230 C   0  0  0  0  0  0  0  0  0  0  0  0
    4.7030   69.7660   66.5300 C   0  0  0  0  0  0  0  0  0  0  0  0
    5.4030   69.7010   65.3470 O   0  0  0  0  0  0  0  0  0  0  0  0
    4.3780   69.4690   64.3380 C   0  0  2  0  0  0  0  0  0  0  0  0
    3.2180   68.7030   65.0470 C   0  0  2  0  0  0  0  0  0  0  0  0
    1.8430   69.0880   64.4790 C   0  0  0  0  0  0  0  0  0  0  0  0
    0.6520   68.2770   64.9930 C   0  0  0  0  0  0  0  0  0  0  0  0
    0.6810   67.9560   66.4680 N   0  0  1  0  0  4  0  0  0  0  0  0
    1.0310   69.1110   67.3690 C   0  0  0  0  0  0  0  0  0  0  0  0
   -0.6060   67.2940   66.8890 C   0  0  0  0  0  0  0  0  0  0  0  0
    3.4670   67.2050   64.9950 C   0  0  0  0  0  0  0  0  0  0  0  0
    3.9830   66.6340   63.8960 C   0  0  0  0  0  0  0  0  0  0  0  0
    4.3860   67.4600   62.7170 C   0  0  1  0  0  0  0  0  0  0  0  0
    5.0560   68.7640   63.1510 C   0  0  0  0  0  0  0  0  0  0  0  0
    7.1480   70.9600   68.9180 C   0  0  0  0  0  0  0  0  0  0  0  0
    6.5090   70.7220   67.6710 O   0  0  0  0  0  0  0  0  0  0  0  0
    5.2700   66.6990   61.9140 O   0  0  0  0  0  0  0  0  0  0  0  0
    4.7020   70.7983   69.7417 H   0  0  0  0  0  0  0  0  0  0  0  0
    2.3264   70.0940   69.5279 H   0  0  0  0  0  0  0  0  0  0  0  0
    3.9195   70.3722   63.9090 H   0  0  0  0  0  0  0  0  0  0  0  0
    1.6615   70.1447   64.7251 H   0  0  0  0  0  0  0  0  0  0  0  0
    1.8996   68.8792   63.4005 H   0  0  0  0  0  0  0  0  0  0  0  0
   -0.2641   68.8502   64.7875 H   0  0  0  0  0  0  0  0  0  0  0  0
    0.6924   67.3104   64.4695 H   0  0  0  0  0  0  0  0  0  0  0  0
    1.4629   67.2966   66.5893 H   0  0  0  0  0  0  0  0  0  0  0  0
    0.5265   70.0093   66.9835 H   0  0  0  0  0  0  0  0  0  0  0  0
    0.7016   68.8236   68.3784 H   0  0  0  0  0  0  0  0  0  0  0  0
   -0.6615   67.2655   67.9872 H   0  0  0  0  0  0  0  0  0  0  0  0
   -1.4587   67.8654   66.4935 H   0  0  0  0  0  0  0  0  0  0  0  0
   -0.6371   66.2680   66.4935 H   0  0  0  0  0  0  0  0  0  0  0  0
    3.2216   66.5820   65.8677 H   0  0  0  0  0  0  0  0  0  0  0  0
    4.1114   65.5420   63.8620 H   0  0  0  0  0  0  0  0  0  0  0  0
    3.4866   67.7289   62.1436 H   0  0  0  0  0  0  0  0  0  0  0  0
    6.0947   68.5382   63.4340 H   0  0  0  0  0  0  0  0  0  0  0  0
    4.9811   69.4521   62.2961 H   0  0  0  0  0  0  0  0  0  0  0  0
    6.4601   70.7038   69.7373 H   0  0  0  0  0  0  0  0  0  0  0  0
    8.0527   70.3385   68.9909 H   0  0  0  0  0  0  0  0  0  0  0  0
    7.4257   72.0219   68.9909 H   0  0  0  0  0  0  0  0  0  0  0  0
    5.8771   66.1764   62.4957 H   0  0  0  0  0  0  0  0  0  0  0  0
  2  1  2  0
  3  2  1  0
  4  3  2  0
  5  4  1  0
  6  5  2  0
  6  1  1  0
  7  6  1  0
  8  7  1  0
  9  8  1  0
  9  5  1  0
  9 10  1  6
 11 10  1  0
 12 11  1  0
 13 12  1  0
 13  4  1  0
 14 12  1  0
 15  9  1  0
 16 15  2  0
 17 16  1  0
 18 17  1  0
 18  8  1  0
 20  1  1  0
 20 19  1  0
 21 17  1  0
  2 22  1  0
  3 23  1  0
  8 24  1  6
 10 25  1  0
 10 26  1  0
 11 27  1  0
 11 28  1  0
 12 29  1  6
 13 30  1  0
 13 31  1  0
 14 32  1  0
 14 33  1  0
 14 34  1  0
 15 35  1  0
 16 36  1  0
 17 37  1  6
 18 38  1  0
 18 39  1  0
 19 40  1  0
 19 41  1  0
 19 42  1  0
 21 43  1  0
M  CHG  1  12   1
M  END
>  <score>  (1) 
-10.697

$$$$
=
     RDKit          3D

 43 46  0  0  0  0  0  0  0  0999 V2000
    3.9060   69.8860   68.0270 C   0  0  0  0  0  0  0  0  0  0  0  0
    4.9000   70.2280   67.1120 C   0  0  0  0  0  0  0  0  0  0  0  0
    4.8040   69.8330   65.7640 C   0  0  0  0  0  0  0  0  0  0  0  0
    3.6880   69.1250   65.2750 C   0  0  0  0  0  0  0  0  0  0  0  0
    2.6750   68.8450   66.1900 C   0  0  0  0  0  0  0  0  0  0  0  0
    2.8210   69.1740   67.5370 C   0  0  0  0  0  0  0  0  0  0  0  0
    1.8090   68.6780   68.3260 O   0  0  0  0  0  0  0  0  0  0  0  0
    1.1560   67.6840   67.4860 C   0  0  2  0  0  0  0  0  0  0  0  0
    1.3610   68.1420   66.0080 C   0  0  2  0  0  0  0  0  0  0  0  0
    1.5110   66.9500   65.0520 C   0  0  0  0  0  0  0  0  0  0  0  0
    1.5550   67.2850   63.5600 C   0  0  0  0  0  0  0  0  0  0  0  0
    2.3570   68.5130   63.2010 N   0  0  1  0  0  4  0  0  0  0  0  0
    3.7070   68.6130   63.8600 C   0  0  0  0  0  0  0  0  0  0  0  0
    2.4580   68.6580   61.7040 C   0  0  0  0  0  0  0  0  0  0  0  0
    0.2440   69.0830   65.5900 C   0  0  0  0  0  0  0  0  0  0  0  0
   -1.0200   68.8650   65.9830 C   0  0  0  0  0  0  0  0  0  0  0  0
   -1.3560   67.7290   66.8940 C   0  0  1  0  0  0  0  0  0  0  0  0
   -0.2950   67.5490   67.9790 C   0  0  0  0  0  0  0  0  0  0  0  0
    5.1150   70.6440   69.9300 C   0  0  0  0  0  0  0  0  0  0  0  0
    3.9050   70.1630   69.3600 O   0  0  0  0  0  0  0  0  0  0  0  0
   -2.6200   67.9810   67.4820 O   0  0  0  0  0  0  0  0  0  0  0  0
    5.7693   70.8131   67.4467 H   0  0  0  0  0  0  0  0  0  0  0  0
    5.6227   70.0840   65.0735 H   0  0  0  0  0  0  0  0  0  0  0  0
    1.5719   66.6672   67.5427 H   0  0  0  0  0  0  0  0  0  0  0  0
    2.4461   66.4300   65.3074 H   0  0  0  0  0  0  0  0  0  0  0  0
    0.6042   66.3433   65.1919 H   0  0  0  0  0  0  0  0  0  0  0  0
    1.9928   66.4257   63.0309 H   0  0  0  0  0  0  0  0  0  0  0  0
    0.5176   67.5003   63.2644 H   0  0  0  0  0  0  0  0  0  0  0  0
    1.8288   69.3076   63.5889 H   0  0  0  0  0  0  0  0  0  0  0  0
    4.1588   67.6101   63.8661 H   0  0  0  0  0  0  0  0  0  0  0  0
    4.2807   69.3471   63.2753 H   0  0  0  0  0  0  0  0  0  0  0  0
    3.0712   69.5384   61.4614 H   0  0  0  0  0  0  0  0  0  0  0  0
    2.9252   67.7574   61.2791 H   0  0  0  0  0  0  0  0  0  0  0  0
    1.4512   68.7841   61.2791 H   0  0  0  0  0  0  0  0  0  0  0  0
    0.4743   69.9532   64.9578 H   0  0  0  0  0  0  0  0  0  0  0  0
   -1.8204   69.5318   65.6297 H   0  0  0  0  0  0  0  0  0  0  0  0
   -1.3865   66.7980   66.3089 H   0  0  0  0  0  0  0  0  0  0  0  0
   -0.4657   68.3097   68.7550 H   0  0  0  0  0  0  0  0  0  0  0  0
   -0.4026   66.5197   68.3519 H   0  0  0  0  0  0  0  0  0  0  0  0
    5.0407   70.6144   71.0271 H   0  0  0  0  0  0  0  0  0  0  0  0
    5.9522   70.0103   69.6020 H   0  0  0  0  0  0  0  0  0  0  0  0
    5.2886   71.6795   69.6020 H   0  0  0  0  0  0  0  0  0  0  0  0
   -2.5345   67.9640   68.4682 H   0  0  0  0  0  0  0  0  0  0  0  0
  2  1  2  0
  3  2  1  0
  4  3  2  0
  5  4  1  0
  6  5  2  0
  6  1  1  0
  7  6  1  0
  8  7  1  0
  9  8  1  0
  9  5  1  0
  9 10  1  6
 11 10  1  0
 12 11  1  0
 13 12  1  0
 13  4  1  0
 14 12  1  0
 15  9  1  0
 16 15  2  0
 17 16  1  0
 18 17  1  0
 18  8  1  0
 20  1  1  0
 20 19  1  0
 21 17  1  0
  2 22  1  0
  3 23  1  0
  8 24  1  6
 10 25  1  0
 10 26  1  0
 11 27  1  0
 11 28  1  0
 12 29  1  1
 13 30  1  0
 13 31  1  0
 14 32  1  0
 14 33  1  0
 14 34  1  0
 15 35  1  0
 16 36  1  0
 17 37  1  6
 18 38  1  0
 18 39  1  0
 19 40  1  0
 19 41  1  0
 19 42  1  0
 21 43  1  0
M  CHG  1  12   1
M  END
>  <score>  (2) 
-9.445

$$$$
=
     RDKit          3D

 43 46  0  0  0  0  0  0  0  0999 V2000
    3.6180   68.4470   63.9210 C   0  0  0  0  0  0  0  0  0  0  0  0
    4.8870   69.0130   64.0310 C   0  0  0  0  0  0  0  0  0  0  0  0
    5.2790   69.6780   65.2090 C   0  0  0  0  0  0  0  0  0  0  0  0
    4.4330   69.7590   66.3320 C   0  0  0  0  0  0  0  0  0  0  0  0
    3.1920   69.1350   66.2280 C   0  0  0  0  0  0  0  0  0  0  0  0
    2.7890   68.5500   65.0280 C   0  0  0  0  0  0  0  0  0  0  0  0
    1.4780   68.1320   65.0450 O   0  0  0  0  0  0  0  0  0  0  0  0
    0.9060   68.7990   66.2070 C   0  0  2  0  0  0  0  0  0  0  0  0
    2.0740   69.0090   67.2210 C   0  0  2  0  0  0  0  0  0  0  0  0
    1.9120   70.3090   68.0240 C   0  0  0  0  0  0  0  0  0  0  0  0
    2.9150   70.5300   69.1570 C   0  0  0  0  0  0  0  0  0  0  0  0
    4.3370   70.1320   68.8430 N   0  0  1  0  0  4  0  0  0  0  0  0
    4.8540   70.5990   67.5080 C   0  0  0  0  0  0  0  0  0  0  0  0
    5.2580   70.5340   69.9660 C   0  0  0  0  0  0  0  0  0  0  0  0
    2.2190   67.7900   68.1160 C   0  0  0  0  0  0  0  0  0  0  0  0
    1.1370   67.1400   68.5700 C   0  0  0  0  0  0  0  0  0  0  0  0
   -0.2380   67.5560   68.1590 C   0  0  1  0  0  0  0  0  0  0  0  0
   -0.2850   67.9500   66.6830 C   0  0  0  0  0  0  0  0  0  0  0  0
    3.7750   68.0160   61.5870 C   0  0  0  0  0  0  0  0  0  0  0  0
    3.1030   67.8240   62.8250 O   0  0  0  0  0  0  0  0  0  0  0  0
   -1.1280   66.4820   68.4070 O   0  0  0  0  0  0  0  0  0  0  0  0
    5.5902   68.9395   63.1883 H   0  0  0  0  0  0  0  0  0  0  0  0
    6.2731   70.1469   65.2531 H   0  0  0  0  0  0  0  0  0  0  0  0
    0.4871   69.7992   66.0225 H   0  0  0  0  0  0  0  0  0  0  0  0
    2.0065   71.1511   67.3226 H   0  0  0  0  0  0  0  0  0  0  0  0
    0.9284   70.2347   68.5108 H   0  0  0  0  0  0  0  0  0  0  0  0
    2.9095   71.5999   69.4125 H   0  0  0  0  0  0  0  0  0  0  0  0
    2.5911   69.8795   69.9828 H   0  0  0  0  0  0  0  0  0  0  0  0
    4.3217   69.1053   68.7616 H   0  0  0  0  0  0  0  0  0  0  0  0
    4.4918   71.6243   67.3418 H   0  0  0  0  0  0  0  0  0  0  0  0
    5.9503   70.5255   67.5608 H   0  0  0  0  0  0  0  0  0  0  0  0
    4.7738   70.3226   70.9308 H   0  0  0  0  0  0  0  0  0  0  0  0
    6.1955   69.9632   69.8935 H   0  0  0  0  0  0  0  0  0  0  0  0
    5.4770   71.6095   69.8935 H   0  0  0  0  0  0  0  0  0  0  0  0
    3.2226   67.4364   68.3949 H   0  0  0  0  0  0  0  0  0  0  0  0
    1.2638   66.2885   69.2547 H   0  0  0  0  0  0  0  0  0  0  0  0
   -0.5343   68.4393   68.7438 H   0  0  0  0  0  0  0  0  0  0  0  0
   -0.3107   67.0285   66.0829 H   0  0  0  0  0  0  0  0  0  0  0  0
   -1.1821   68.5738   66.5560 H   0  0  0  0  0  0  0  0  0  0  0  0
    4.8167   68.3136   61.7775 H   0  0  0  0  0  0  0  0  0  0  0  0
    3.7609   67.0779   61.0128 H   0  0  0  0  0  0  0  0  0  0  0  0
    3.2674   68.8051   61.0128 H   0  0  0  0  0  0  0  0  0  0  0  0
   -1.2311   66.3576   69.3837 H   0  0  0  0  0  0  0  0  0  0  0  0
  2  1  2  0
  3  2  1  0
  4  3  2  0
  5  4  1  0
  6  5  2  0
  6  1  1  0
  7  6  1  0
  8  7  1  0
  9  8  1  0
  9  5  1  0
  9 10  1  1
 11 10  1  0
 12 11  1  0
 13 12  1  0
 13  4  1  0
 14 12  1  0
 15  9  1  0
 16 15  2  0
 17 16  1  0
 18 17  1  0
 18  8  1  0
 20  1  1  0
 20 19  1  0
 21 17  1  0
  2 22  1  0
  3 23  1  0
  8 24  1  6
 10 25  1  0
 10 26  1  0
 11 27  1  0
 11 28  1  0
 12 29  1  6
 13 30  1  0
 13 31  1  0
 14 32  1  0
 14 33  1  0
 14 34  1  0
 15 35  1  0
 16 36  1  0
 17 37  1  1
 18 38  1  0
 18 39  1  0
 19 40  1  0
 19 41  1  0
 19 42  1  0
 21 43  1  0
M  CHG  1  12   1
M  END
>  <score>  (3) 
-8.349

$$$$
=
     RDKit          3D

 43 46  0  0  0  0  0  0  0  0999 V2000
    1.0960   65.3160   70.3640 C   0  0  0  0  0  0  0  0  0  0  0  0
    0.1960   65.8270   71.2960 C   0  0  0  0  0  0  0  0  0  0  0  0
   -0.1430   65.0900   72.4480 C   0  0  0  0  0  0  0  0  0  0  0  0
    0.4430   63.8410   72.7280 C   0  0  0  0  0  0  0  0  0  0  0  0
    1.3860   63.3720   71.8160 C   0  0  0  0  0  0  0  0  0  0  0  0
    1.6510   64.0760   70.6430 C   0  0  0  0  0  0  0  0  0  0  0  0
    2.4770   63.3940   69.7790 O   0  0  0  0  0  0  0  0  0  0  0  0
    2.4650   62.0260   70.2800 C   0  0  2  0  0  0  0  0  0  0  0  0
    2.2060   62.1150   71.8160 C   0  0  2  0  0  0  0  0  0  0  0  0
    1.3780   60.9270   72.3290 C   0  0  0  0  0  0  0  0  0  0  0  0
    1.2050   60.8330   73.8460 C   0  0  0  0  0  0  0  0  0  0  0  0
    0.9630   62.1470   74.5480 N   0  0  1  0  0  4  0  0  0  0  0  0
   -0.0610   63.0420   73.9000 C   0  0  0  0  0  0  0  0  0  0  0  0
    0.6560   61.9180   76.0060 C   0  0  0  0  0  0  0  0  0  0  0  0
    3.5190   62.2700   72.5620 C   0  0  0  0  0  0  0  0  0  0  0  0
    4.6130   61.5970   72.1740 C   0  0  0  0  0  0  0  0  0  0  0  0
    4.5880   60.7250   70.9600 C   0  0  1  0  0  0  0  0  0  0  0  0
    3.7780   61.3620   69.8310 C   0  0  0  0  0  0  0  0  0  0  0  0
    1.0650   67.2510   68.9800 C   0  0  0  0  0  0  0  0  0  0  0  0
    1.4670   65.9040   69.1920 O   0  0  0  0  0  0  0  0  0  0  0  0
    5.9210   60.5000   70.5380 O   0  0  0  0  0  0  0  0  0  0  0  0
   -0.2550   66.8166   71.1309 H   0  0  0  0  0  0  0  0  0  0  0  0
   -0.8855   65.5016   73.1474 H   0  0  0  0  0  0  0  0  0  0  0  0
    1.6689   61.3802   69.8810 H   0  0  0  0  0  0  0  0  0  0  0  0
    0.3762   60.9967   71.8801 H   0  0  0  0  0  0  0  0  0  0  0  0
    1.9407   60.0273   72.0393 H   0  0  0  0  0  0  0  0  0  0  0  0
    0.3476   60.1750   74.0506 H   0  0  0  0  0  0  0  0  0  0  0  0
    2.1578   60.4482   74.2386 H   0  0  0  0  0  0  0  0  0  0  0  0
    1.8459   62.6701   74.4602 H   0  0  0  0  0  0  0  0  0  0  0  0
   -0.8927   62.4122   73.5513 H   0  0  0  0  0  0  0  0  0  0  0  0
   -0.3583   63.7736   74.6657 H   0  0  0  0  0  0  0  0  0  0  0  0
    1.3853   62.4620   76.6241 H   0  0  0  0  0  0  0  0  0  0  0  0
   -0.3577   62.2824   76.2289 H   0  0  0  0  0  0  0  0  0  0  0  0
    0.7163   60.8425   76.2289 H   0  0  0  0  0  0  0  0  0  0  0  0
    3.5742   62.9421   73.4310 H   0  0  0  0  0  0  0  0  0  0  0  0
    5.5412   61.6882   72.7573 H   0  0  0  0  0  0  0  0  0  0  0  0
    4.1026   59.7713   71.2146 H   0  0  0  0  0  0  0  0  0  0  0  0
    4.4034   62.1289   69.3506 H   0  0  0  0  0  0  0  0  0  0  0  0
    3.4970   60.5452   69.1499 H   0  0  0  0  0  0  0  0  0  0  0  0
    0.9171   67.7466   69.9508 H   0  0  0  0  0  0  0  0  0  0  0  0
    1.8441   67.7812   68.4126 H   0  0  0  0  0  0  0  0  0  0  0  0
    0.1228   67.2675   68.4126 H   0  0  0  0  0  0  0  0  0  0  0  0
    6.5059   60.4013   71.3306 H   0  0  0  0  0  0  0  0  0  0  0  0
  2  1  2  0
  3  2  1  0
  4  3  2  0
  5  4  1  0
  6  5  2  0
  6  1  1  0
  7  6  1  0
  8  7  1  0
  9  8  1  0
  9  5  1  0
  9 10  1  1
 11 10  1  0
 12 11  1  0
 13 12  1  0
 13  4  1  0
 14 12  1  0
 15  9  1  0
 16 15  2  0
 17 16  1  0
 18 17  1  0
 18  8  1  0
 20  1  1  0
 20 19  1  0
 21 17  1  0
  2 22  1  0
  3 23  1  0
  8 24  1  6
 10 25  1  0
 10 26  1  0
 11 27  1  0
 11 28  1  0
 12 29  1  1
 13 30  1  0
 13 31  1  0
 14 32  1  0
 14 33  1  0
 14 34  1  0
 15 35  1  0
 16 36  1  0
 17 37  1  1
 18 38  1  0
 18 39  1  0
 19 40  1  0
 19 41  1  0
 19 42  1  0
 21 43  1  0
M  CHG  1  12   1
M  END
>  <score>  (4) 
-7.94

$$$$
