=
     RDKit          3D

 26 27  0  0  0  0  0  0  0  0999 V2000
    5.6320   69.4350   63.6030 O   0  0  0  0  0  0  0  0  0  0  0  0
    4.5140   69.1800   64.0230 C   0  0  0  0  0  0  0  0  0  0  0  0
    3.3620   68.9750   63.1200 C   0  0  0  0  0  0  0  0  0  0  0  0
    2.3020   68.7650   63.9110 C   0  0  0  0  0  0  0  0  0  0  0  0
    2.6200   68.7890   65.2740 N   0  0  0  0  0  0  0  0  0  0  0  0
    4.0170   69.0870   65.3290 N   0  0  0  0  0  0  0  0  0  0  0  0
    2.2330   67.6250   66.0900 C   0  0  0  0  0  0  0  0  0  0  0  0
    0.9120   68.5120   63.4340 C   0  0  0  0  0  0  0  0  0  0  0  0
    4.6090   69.6770   66.4770 C   0  0  0  0  0  0  0  0  0  0  0  0
    5.9840   69.9510   66.5300 C   0  0  0  0  0  0  0  0  0  0  0  0
    6.5630   70.5350   67.6610 C   0  0  0  0  0  0  0  0  0  0  0  0
    5.7730   70.8520   68.7620 C   0  0  0  0  0  0  0  0  0  0  0  0
    4.4090   70.5800   68.7320 C   0  0  0  0  0  0  0  0  0  0  0  0
    3.8330   69.9960   67.6000 C   0  0  0  0  0  0  0  0  0  0  0  0
    3.3731   68.9916   62.0202 H   0  0  0  0  0  0  0  0  0  0  0  0
    2.3179   67.8804   67.1566 H   0  0  0  0  0  0  0  0  0  0  0  0
    1.1938   67.3461   65.8613 H   0  0  0  0  0  0  0  0  0  0  0  0
    2.8983   66.7794   65.8613 H   0  0  0  0  0  0  0  0  0  0  0  0
    0.2438   68.3904   64.2993 H   0  0  0  0  0  0  0  0  0  0  0  0
    0.5726   69.3631   62.8254 H   0  0  0  0  0  0  0  0  0  0  0  0
    0.8942   67.5959   62.8254 H   0  0  0  0  0  0  0  0  0  0  0  0
    6.6180   69.7019   65.6663 H   0  0  0  0  0  0  0  0  0  0  0  0
    7.6428   70.7438   67.6804 H   0  0  0  0  0  0  0  0  0  0  0  0
    6.2248   71.3153   69.6515 H   0  0  0  0  0  0  0  0  0  0  0  0
    3.7818   70.8252   69.6017 H   0  0  0  0  0  0  0  0  0  0  0  0
    2.7538   69.7834   67.5903 H   0  0  0  0  0  0  0  0  0  0  0  0
  2  1  2  0
  3  2  1  0
  4  3  2  0
  5  4  1  0
  6  5  1  0
  6  2  1  0
  7  5  1  0
  8  4  1  0
  9  6  1  0
 10  9  2  0
 11 10  1  0
 12 11  2  0
 13 12  1  0
 14 13  2  0
 14  9  1  0
  3 15  1  0
  7 16  1  0
  7 17  1  0
  7 18  1  0
  8 19  1  0
  8 20  1  0
  8 21  1  0
 10 22  1  0
 11 23  1  0
 12 24  1  0
 13 25  1  0
 14 26  1  0
M  END
>  <score>  (1) 
-8.228

$$$$
=
     RDKit          3D

 26 27  0  0  0  0  0  0  0  0999 V2000
    2.4490   69.0420   64.3790 O   0  0  0  0  0  0  0  0  0  0  0  0
    1.7540   68.8170   65.3570 C   0  0  0  0  0  0  0  0  0  0  0  0
    0.3090   68.5230   65.2450 C   0  0  0  0  0  0  0  0  0  0  0  0
   -0.1390   68.3770   66.4990 C   0  0  0  0  0  0  0  0  0  0  0  0
    0.8660   68.5240   67.4620 N   0  0  0  0  0  0  0  0  0  0  0  0
    2.0510   68.8370   66.7250 N   0  0  0  0  0  0  0  0  0  0  0  0
    1.0480   67.4340   68.4370 C   0  0  0  0  0  0  0  0  0  0  0  0
   -1.5490   68.0720   66.8760 C   0  0  0  0  0  0  0  0  0  0  0  0
    3.1370   69.5300   67.3200 C   0  0  0  0  0  0  0  0  0  0  0  0
    2.9930   70.2000   68.5450 C   0  0  0  0  0  0  0  0  0  0  0  0
    4.0670   70.8790   69.1300 C   0  0  0  0  0  0  0  0  0  0  0  0
    5.3050   70.9010   68.4950 C   0  0  0  0  0  0  0  0  0  0  0  0
    5.4670   70.2490   67.2760 C   0  0  0  0  0  0  0  0  0  0  0  0
    4.3910   69.5720   66.6930 C   0  0  0  0  0  0  0  0  0  0  0  0
   -0.2791   68.4408   64.3191 H   0  0  0  0  0  0  0  0  0  0  0  0
    0.9803   67.8396   69.4573 H   0  0  0  0  0  0  0  0  0  0  0  0
    0.2639   66.6765   68.2907 H   0  0  0  0  0  0  0  0  0  0  0  0
    2.0357   66.9723   68.2907 H   0  0  0  0  0  0  0  0  0  0  0  0
   -1.6394   68.0524   67.9721 H   0  0  0  0  0  0  0  0  0  0  0  0
   -2.2138   68.8471   66.4670 H   0  0  0  0  0  0  0  0  0  0  0  0
   -1.8340   67.0914   66.4670 H   0  0  0  0  0  0  0  0  0  0  0  0
    2.0180   70.1909   69.0542 H   0  0  0  0  0  0  0  0  0  0  0  0
    3.9329   71.3955   70.0919 H   0  0  0  0  0  0  0  0  0  0  0  0
    6.1521   71.4314   68.9545 H   0  0  0  0  0  0  0  0  0  0  0  0
    6.4436   70.2662   66.7700 H   0  0  0  0  0  0  0  0  0  0  0  0
    4.5304   69.0643   65.7272 H   0  0  0  0  0  0  0  0  0  0  0  0
  2  1  2  0
  3  2  1  0
  4  3  2  0
  5  4  1  0
  6  5  1  0
  6  2  1  0
  7  5  1  0
  8  4  1  0
  9  6  1  0
 10  9  2  0
 11 10  1  0
 12 11  2  0
 13 12  1  0
 14 13  2  0
 14  9  1  0
  3 15  1  0
  7 16  1  0
  7 17  1  0
  7 18  1  0
  8 19  1  0
  8 20  1  0
  8 21  1  0
 10 22  1  0
 11 23  1  0
 12 24  1  0
 13 25  1  0
 14 26  1  0
M  END
>  <score>  (2) 
-8.063

$$$$
=
     RDKit          3D

 26 27  0  0  0  0  0  0  0  0999 V2000
    1.7530   68.9180   66.5800 O   0  0  0  0  0  0  0  0  0  0  0  0
    2.6730   68.6850   65.8130 C   0  0  0  0  0  0  0  0  0  0  0  0
    2.5650   67.6750   64.7390 C   0  0  0  0  0  0  0  0  0  0  0  0
    3.7580   67.6500   64.1300 C   0  0  0  0  0  0  0  0  0  0  0  0
    4.6710   68.5620   64.6730 N   0  0  0  0  0  0  0  0  0  0  0  0
    3.9810   69.1840   65.7590 N   0  0  0  0  0  0  0  0  0  0  0  0
    5.3130   69.5200   63.7550 C   0  0  0  0  0  0  0  0  0  0  0  0
    4.1170   66.7720   62.9790 C   0  0  0  0  0  0  0  0  0  0  0  0
    4.6780   69.7780   66.8430 C   0  0  0  0  0  0  0  0  0  0  0  0
    4.0100   70.1710   68.0130 C   0  0  0  0  0  0  0  0  0  0  0  0
    4.7020   70.7530   69.0810 C   0  0  0  0  0  0  0  0  0  0  0  0
    6.0760   70.9530   68.9940 C   0  0  0  0  0  0  0  0  0  0  0  0
    6.7550   70.5770   67.8390 C   0  0  0  0  0  0  0  0  0  0  0  0
    6.0610   69.9970   66.7730 C   0  0  0  0  0  0  0  0  0  0  0  0
    1.6830   67.0667   64.4901 H   0  0  0  0  0  0  0  0  0  0  0  0
    5.8323   70.2949   64.3380 H   0  0  0  0  0  0  0  0  0  0  0  0
    6.0390   68.9900   63.1209 H   0  0  0  0  0  0  0  0  0  0  0  0
    4.5468   69.9900   63.1209 H   0  0  0  0  0  0  0  0  0  0  0  0
    4.5082   65.8154   63.3556 H   0  0  0  0  0  0  0  0  0  0  0  0
    3.2225   66.5866   62.3663 H   0  0  0  0  0  0  0  0  0  0  0  0
    4.8851   67.2665   62.3663 H   0  0  0  0  0  0  0  0  0  0  0  0
    2.9234   70.0189   68.0919 H   0  0  0  0  0  0  0  0  0  0  0  0
    4.1593   71.0525   69.9897 H   0  0  0  0  0  0  0  0  0  0  0  0
    6.6229   71.4061   69.8340 H   0  0  0  0  0  0  0  0  0  0  0  0
    7.8408   70.7366   67.7646 H   0  0  0  0  0  0  0  0  0  0  0  0
    6.6091   69.7077   65.8642 H   0  0  0  0  0  0  0  0  0  0  0  0
  2  1  2  0
  3  2  1  0
  4  3  2  0
  5  4  1  0
  6  5  1  0
  6  2  1  0
  7  5  1  0
  8  4  1  0
  9  6  1  0
 10  9  2  0
 11 10  1  0
 12 11  2  0
 13 12  1  0
 14 13  2  0
 14  9  1  0
  3 15  1  0
  7 16  1  0
  7 17  1  0
  7 18  1  0
  8 19  1  0
  8 20  1  0
  8 21  1  0
 10 22  1  0
 11 23  1  0
 12 24  1  0
 13 25  1  0
 14 26  1  0
M  END
>  <score>  (3) 
-7.957

$$$$
=
     RDKit          3D

 26 27  0  0  0  0  0  0  0  0999 V2000
    2.4110   69.4910   68.2810 O   0  0  0  0  0  0  0  0  0  0  0  0
    2.5270   69.0970   67.1320 C   0  0  0  0  0  0  0  0  0  0  0  0
    3.6670   69.4900   66.2760 C   0  0  0  0  0  0  0  0  0  0  0  0
    3.4500   68.9200   65.0830 C   0  0  0  0  0  0  0  0  0  0  0  0
    2.2780   68.1570   65.0440 N   0  0  0  0  0  0  0  0  0  0  0  0
    1.6870   68.3070   66.3370 N   0  0  0  0  0  0  0  0  0  0  0  0
    2.3850   66.7550   64.6030 C   0  0  0  0  0  0  0  0  0  0  0  0
    4.3460   69.0450   63.8970 C   0  0  0  0  0  0  0  0  0  0  0  0
    0.2960   68.1190   66.5470 C   0  0  0  0  0  0  0  0  0  0  0  0
   -0.1810   67.2280   67.5210 C   0  0  0  0  0  0  0  0  0  0  0  0
   -1.5530   67.0480   67.7280 C   0  0  0  0  0  0  0  0  0  0  0  0
   -2.4720   67.7570   66.9610 C   0  0  0  0  0  0  0  0  0  0  0  0
   -2.0190   68.6390   65.9840 C   0  0  0  0  0  0  0  0  0  0  0  0
   -0.6470   68.8170   65.7790 C   0  0  0  0  0  0  0  0  0  0  0  0
    4.5206   70.1225   66.5611 H   0  0  0  0  0  0  0  0  0  0  0  0
    2.4352   66.0967   65.4828 H   0  0  0  0  0  0  0  0  0  0  0  0
    1.5043   66.4925   63.9985 H   0  0  0  0  0  0  0  0  0  0  0  0
    3.2954   66.6292   63.9985 H   0  0  0  0  0  0  0  0  0  0  0  0
    5.3829   69.1897   64.2345 H   0  0  0  0  0  0  0  0  0  0  0  0
    4.2820   68.1292   63.2910 H   0  0  0  0  0  0  0  0  0  0  0  0
    4.0338   69.9083   63.2910 H   0  0  0  0  0  0  0  0  0  0  0  0
    0.5366   66.6612   68.1324 H   0  0  0  0  0  0  0  0  0  0  0  0
   -1.9052   66.3455   68.4977 H   0  0  0  0  0  0  0  0  0  0  0  0
   -3.5511   67.6213   67.1258 H   0  0  0  0  0  0  0  0  0  0  0  0
   -2.7421   69.1975   65.3715 H   0  0  0  0  0  0  0  0  0  0  0  0
   -0.3021   69.5159   65.0027 H   0  0  0  0  0  0  0  0  0  0  0  0
  2  1  2  0
  3  2  1  0
  4  3  2  0
  5  4  1  0
  6  5  1  0
  6  2  1  0
  7  5  1  0
  8  4  1  0
  9  6  1  0
 10  9  2  0
 11 10  1  0
 12 11  2  0
 13 12  1  0
 14 13  2  0
 14  9  1  0
  3 15  1  0
  7 16  1  0
  7 17  1  0
  7 18  1  0
  8 19  1  0
  8 20  1  0
  8 21  1  0
 10 22  1  0
 11 23  1  0
 12 24  1  0
 13 25  1  0
 14 26  1  0
M  END
>  <score>  (4) 
-7.845

$$$$
=
     RDKit          3D

 26 27  0  0  0  0  0  0  0  0999 V2000
    1.4440   66.5190   69.2060 O   0  0  0  0  0  0  0  0  0  0  0  0
    0.6520   67.1580   68.5320 C   0  0  0  0  0  0  0  0  0  0  0  0
   -0.7530   66.7330   68.3550 C   0  0  0  0  0  0  0  0  0  0  0  0
   -1.3120   67.6280   67.5310 C   0  0  0  0  0  0  0  0  0  0  0  0
   -0.4280   68.6400   67.1380 N   0  0  0  0  0  0  0  0  0  0  0  0
    0.8200   68.3090   67.7520 N   0  0  0  0  0  0  0  0  0  0  0  0
   -0.8420   70.0370   67.3590 C   0  0  0  0  0  0  0  0  0  0  0  0
   -2.7280   67.6000   67.0660 C   0  0  0  0  0  0  0  0  0  0  0  0
    2.0550   68.7730   67.2280 C   0  0  0  0  0  0  0  0  0  0  0  0
    2.9500   69.5120   68.0160 C   0  0  0  0  0  0  0  0  0  0  0  0
    4.1680   69.9650   67.4980 C   0  0  0  0  0  0  0  0  0  0  0  0
    4.5090   69.6870   66.1780 C   0  0  0  0  0  0  0  0  0  0  0  0
    3.6310   68.9620   65.3780 C   0  0  0  0  0  0  0  0  0  0  0  0
    2.4140   68.5110   65.8980 C   0  0  0  0  0  0  0  0  0  0  0  0
   -1.2408   65.8578   68.8089 H   0  0  0  0  0  0  0  0  0  0  0  0
   -0.9008   70.2355   68.4393 H   0  0  0  0  0  0  0  0  0  0  0  0
   -0.1060   70.7143   66.9013 H   0  0  0  0  0  0  0  0  0  0  0  0
   -1.8282   70.2039   66.9013 H   0  0  0  0  0  0  0  0  0  0  0  0
   -3.3997   67.5867   67.9370 H   0  0  0  0  0  0  0  0  0  0  0  0
   -2.9323   68.4943   66.4589 H   0  0  0  0  0  0  0  0  0  0  0  0
   -2.8968   66.6983   66.4589 H   0  0  0  0  0  0  0  0  0  0  0  0
    2.6893   69.7394   69.0602 H   0  0  0  0  0  0  0  0  0  0  0  0
    4.8561   70.5410   68.1342 H   0  0  0  0  0  0  0  0  0  0  0  0
    5.4677   70.0385   65.7689 H   0  0  0  0  0  0  0  0  0  0  0  0
    3.8953   68.7430   64.3329 H   0  0  0  0  0  0  0  0  0  0  0  0
    1.7276   67.9419   65.2539 H   0  0  0  0  0  0  0  0  0  0  0  0
  2  1  2  0
  3  2  1  0
  4  3  2  0
  5  4  1  0
  6  5  1  0
  6  2  1  0
  7  5  1  0
  8  4  1  0
  9  6  1  0
 10  9  2  0
 11 10  1  0
 12 11  2  0
 13 12  1  0
 14 13  2  0
 14  9  1  0
  3 15  1  0
  7 16  1  0
  7 17  1  0
  7 18  1  0
  8 19  1  0
  8 20  1  0
  8 21  1  0
 10 22  1  0
 11 23  1  0
 12 24  1  0
 13 25  1  0
 14 26  1  0
M  END
>  <score>  (5) 
-7.83

$$$$
=
     RDKit          3D

 26 27  0  0  0  0  0  0  0  0999 V2000
    5.3500   70.0090   64.9270 O   0  0  0  0  0  0  0  0  0  0  0  0
    5.3470   70.1520   66.1390 C   0  0  0  0  0  0  0  0  0  0  0  0
    6.5760   70.4720   66.8960 C   0  0  0  0  0  0  0  0  0  0  0  0
    6.2190   70.5090   68.1870 C   0  0  0  0  0  0  0  0  0  0  0  0
    4.8550   70.2640   68.3860 N   0  0  0  0  0  0  0  0  0  0  0  0
    4.3250   70.0060   67.0840 N   0  0  0  0  0  0  0  0  0  0  0  0
    4.0830   71.2590   69.1510 C   0  0  0  0  0  0  0  0  0  0  0  0
    7.1390   70.7950   69.3250 C   0  0  0  0  0  0  0  0  0  0  0  0
    3.1380   69.2490   66.8990 C   0  0  0  0  0  0  0  0  0  0  0  0
    3.0060   68.3460   65.8330 C   0  0  0  0  0  0  0  0  0  0  0  0
    1.8370   67.5990   65.6560 C   0  0  0  0  0  0  0  0  0  0  0  0
    0.7760   67.7470   66.5440 C   0  0  0  0  0  0  0  0  0  0  0  0
    0.8840   68.6430   67.6040 C   0  0  0  0  0  0  0  0  0  0  0  0
    2.0540   69.3890   67.7780 C   0  0  0  0  0  0  0  0  0  0  0  0
    7.5807   70.6448   66.4828 H   0  0  0  0  0  0  0  0  0  0  0  0
    4.2210   71.0812   70.2277 H   0  0  0  0  0  0  0  0  0  0  0  0
    4.4355   72.2699   68.8982 H   0  0  0  0  0  0  0  0  0  0  0  0
    3.0163   71.1687   68.8982 H   0  0  0  0  0  0  0  0  0  0  0  0
    6.6094   70.6304   70.2750 H   0  0  0  0  0  0  0  0  0  0  0  0
    8.0098   70.1252   69.2698 H   0  0  0  0  0  0  0  0  0  0  0  0
    7.4765   71.8405   69.2698 H   0  0  0  0  0  0  0  0  0  0  0  0
    3.8375   68.2234   65.1234 H   0  0  0  0  0  0  0  0  0  0  0  0
    1.7563   66.8946   64.8150 H   0  0  0  0  0  0  0  0  0  0  0  0
   -0.1437   67.1588   66.4091 H   0  0  0  0  0  0  0  0  0  0  0  0
    0.0465   68.7645   68.3068 H   0  0  0  0  0  0  0  0  0  0  0  0
    2.1253   70.0965   68.6172 H   0  0  0  0  0  0  0  0  0  0  0  0
  2  1  2  0
  3  2  1  0
  4  3  2  0
  5  4  1  0
  6  5  1  0
  6  2  1  0
  7  5  1  0
  8  4  1  0
  9  6  1  0
 10  9  2  0
 11 10  1  0
 12 11  2  0
 13 12  1  0
 14 13  2  0
 14  9  1  0
  3 15  1  0
  7 16  1  0
  7 17  1  0
  7 18  1  0
  8 19  1  0
  8 20  1  0
  8 21  1  0
 10 22  1  0
 11 23  1  0
 12 24  1  0
 13 25  1  0
 14 26  1  0
M  END
>  <score>  (6) 
-7.563

$$$$
=
     RDKit          3D

 26 27  0  0  0  0  0  0  0  0999 V2000
    3.9490   58.6970   69.5320 O   0  0  0  0  0  0  0  0  0  0  0  0
    3.4920   58.7730   70.6610 C   0  0  0  0  0  0  0  0  0  0  0  0
    2.8110   57.6340   71.3120 C   0  0  0  0  0  0  0  0  0  0  0  0
    2.4020   58.0780   72.5070 C   0  0  0  0  0  0  0  0  0  0  0  0
    2.7550   59.4110   72.7470 N   0  0  0  0  0  0  0  0  0  0  0  0
    3.4130   59.8470   71.5560 N   0  0  0  0  0  0  0  0  0  0  0  0
    3.5040   59.7120   73.9800 C   0  0  0  0  0  0  0  0  0  0  0  0
    1.6600   57.2690   73.5170 C   0  0  0  0  0  0  0  0  0  0  0  0
    3.4780   61.2190   71.1990 C   0  0  0  0  0  0  0  0  0  0  0  0
    4.7070   61.8570   70.9680 C   0  0  0  0  0  0  0  0  0  0  0  0
    4.7670   63.2080   70.6130 C   0  0  0  0  0  0  0  0  0  0  0  0
    3.5950   63.9470   70.4860 C   0  0  0  0  0  0  0  0  0  0  0  0
    2.3660   63.3360   70.7180 C   0  0  0  0  0  0  0  0  0  0  0  0
    2.3090   61.9840   71.0740 C   0  0  0  0  0  0  0  0  0  0  0  0
    2.6689   56.6248   70.8980 H   0  0  0  0  0  0  0  0  0  0  0  0
    2.8852   59.4633   74.8548 H   0  0  0  0  0  0  0  0  0  0  0  0
    4.4278   59.1153   74.0027 H   0  0  0  0  0  0  0  0  0  0  0  0
    3.7580   60.7820   74.0027 H   0  0  0  0  0  0  0  0  0  0  0  0
    1.9523   57.5876   74.5285 H   0  0  0  0  0  0  0  0  0  0  0  0
    0.5784   57.4185   73.3837 H   0  0  0  0  0  0  0  0  0  0  0  0
    1.9022   56.2043   73.3837 H   0  0  0  0  0  0  0  0  0  0  0  0
    5.6402   61.2833   71.0682 H   0  0  0  0  0  0  0  0  0  0  0  0
    5.7410   63.6868   70.4341 H   0  0  0  0  0  0  0  0  0  0  0  0
    3.6394   65.0092   70.2036 H   0  0  0  0  0  0  0  0  0  0  0  0
    1.4373   63.9175   70.6212 H   0  0  0  0  0  0  0  0  0  0  0  0
    1.3320   61.5136   71.2588 H   0  0  0  0  0  0  0  0  0  0  0  0
  2  1  2  0
  3  2  1  0
  4  3  2  0
  5  4  1  0
  6  5  1  0
  6  2  1  0
  7  5  1  0
  8  4  1  0
  9  6  1  0
 10  9  2  0
 11 10  1  0
 12 11  2  0
 13 12  1  0
 14 13  2  0
 14  9  1  0
  3 15  1  0
  7 16  1  0
  7 17  1  0
  7 18  1  0
  8 19  1  0
  8 20  1  0
  8 21  1  0
 10 22  1  0
 11 23  1  0
 12 24  1  0
 13 25  1  0
 14 26  1  0
M  END
>  <score>  (7) 
-7.394

$$$$
=
     RDKit          3D

 26 27  0  0  0  0  0  0  0  0999 V2000
    4.3380   65.9640   64.2710 O   0  0  0  0  0  0  0  0  0  0  0  0
    3.7760   66.8610   63.6630 C   0  0  0  0  0  0  0  0  0  0  0  0
    4.1260   67.2050   62.2680 C   0  0  0  0  0  0  0  0  0  0  0  0
    3.3560   68.2500   61.9390 C   0  0  0  0  0  0  0  0  0  0  0  0
    2.4950   68.6450   62.9700 N   0  0  0  0  0  0  0  0  0  0  0  0
    2.7980   67.7790   64.0660 N   0  0  0  0  0  0  0  0  0  0  0  0
    1.0560   68.7340   62.6680 C   0  0  0  0  0  0  0  0  0  0  0  0
    3.3670   68.9420   60.6180 C   0  0  0  0  0  0  0  0  0  0  0  0
    2.5240   68.1500   65.4080 C   0  0  0  0  0  0  0  0  0  0  0  0
    1.4890   67.5440   66.1370 C   0  0  0  0  0  0  0  0  0  0  0  0
    1.2240   67.9090   67.4600 C   0  0  0  0  0  0  0  0  0  0  0  0
    1.9910   68.8930   68.0770 C   0  0  0  0  0  0  0  0  0  0  0  0
    3.0160   69.5130   67.3690 C   0  0  0  0  0  0  0  0  0  0  0  0
    3.2790   69.1450   66.0460 C   0  0  0  0  0  0  0  0  0  0  0  0
    4.8686   66.7039   61.6297 H   0  0  0  0  0  0  0  0  0  0  0  0
    0.4856   68.7693   63.6079 H   0  0  0  0  0  0  0  0  0  0  0  0
    0.8594   69.6460   62.0853 H   0  0  0  0  0  0  0  0  0  0  0  0
    0.7485   67.8532   62.0853 H   0  0  0  0  0  0  0  0  0  0  0  0
    3.3843   70.0307   60.7745 H   0  0  0  0  0  0  0  0  0  0  0  0
    4.2604   68.6386   60.0526 H   0  0  0  0  0  0  0  0  0  0  0  0
    2.4644   68.6671   60.0526 H   0  0  0  0  0  0  0  0  0  0  0  0
    0.8748   66.7672   65.6582 H   0  0  0  0  0  0  0  0  0  0  0  0
    0.4095   67.4187   68.0134 H   0  0  0  0  0  0  0  0  0  0  0  0
    1.7878   69.1792   69.1195 H   0  0  0  0  0  0  0  0  0  0  0  0
    3.6210   70.2948   67.8515 H   0  0  0  0  0  0  0  0  0  0  0  0
    4.0911   69.6438   65.4967 H   0  0  0  0  0  0  0  0  0  0  0  0
  2  1  2  0
  3  2  1  0
  4  3  2  0
  5  4  1  0
  6  5  1  0
  6  2  1  0
  7  5  1  0
  8  4  1  0
  9  6  1  0
 10  9  2  0
 11 10  1  0
 12 11  2  0
 13 12  1  0
 14 13  2  0
 14  9  1  0
  3 15  1  0
  7 16  1  0
  7 17  1  0
  7 18  1  0
  8 19  1  0
  8 20  1  0
  8 21  1  0
 10 22  1  0
 11 23  1  0
 12 24  1  0
 13 25  1  0
 14 26  1  0
M  END
>  <score>  (8) 
-7.284

$$$$
=
     RDKit          3D

 26 27  0  0  0  0  0  0  0  0999 V2000
    0.2780   61.5850   72.3540 O   0  0  0  0  0  0  0  0  0  0  0  0
    1.0630   60.6530   72.4200 C   0  0  0  0  0  0  0  0  0  0  0  0
    0.9390   59.5900   73.4400 C   0  0  0  0  0  0  0  0  0  0  0  0
    1.9810   58.7690   73.2500 C   0  0  0  0  0  0  0  0  0  0  0  0
    2.7990   59.1580   72.1830 N   0  0  0  0  0  0  0  0  0  0  0  0
    2.2250   60.3700   71.6910 N   0  0  0  0  0  0  0  0  0  0  0  0
    3.0730   58.1640   71.1300 C   0  0  0  0  0  0  0  0  0  0  0  0
    2.2690   57.5480   74.0560 C   0  0  0  0  0  0  0  0  0  0  0  0
    2.9950   61.3220   70.9720 C   0  0  0  0  0  0  0  0  0  0  0  0
    2.6980   61.6460   69.6400 C   0  0  0  0  0  0  0  0  0  0  0  0
    3.4560   62.5870   68.9360 C   0  0  0  0  0  0  0  0  0  0  0  0
    4.5300   63.2190   69.5550 C   0  0  0  0  0  0  0  0  0  0  0  0
    4.8470   62.9060   70.8740 C   0  0  0  0  0  0  0  0  0  0  0  0
    4.0870   61.9640   71.5750 C   0  0  0  0  0  0  0  0  0  0  0  0
    0.1508   59.4927   74.2011 H   0  0  0  0  0  0  0  0  0  0  0  0
    3.3381   57.2023   71.5936 H   0  0  0  0  0  0  0  0  0  0  0  0
    2.1769   58.0352   70.5052 H   0  0  0  0  0  0  0  0  0  0  0  0
    3.9086   58.5125   70.5052 H   0  0  0  0  0  0  0  0  0  0  0  0
    2.2111   57.7934   75.1267 H   0  0  0  0  0  0  0  0  0  0  0  0
    1.5300   56.7688   73.8179 H   0  0  0  0  0  0  0  0  0  0  0  0
    3.2783   57.1811   73.8179 H   0  0  0  0  0  0  0  0  0  0  0  0
    1.8529   61.1506   69.1397 H   0  0  0  0  0  0  0  0  0  0  0  0
    3.2032   62.8276   67.8928 H   0  0  0  0  0  0  0  0  0  0  0  0
    5.1257   63.9623   69.0049 H   0  0  0  0  0  0  0  0  0  0  0  0
    5.6973   63.4008   71.3661 H   0  0  0  0  0  0  0  0  0  0  0  0
    4.3497   61.7227   72.6156 H   0  0  0  0  0  0  0  0  0  0  0  0
  2  1  2  0
  3  2  1  0
  4  3  2  0
  5  4  1  0
  6  5  1  0
  6  2  1  0
  7  5  1  0
  8  4  1  0
  9  6  1  0
 10  9  2  0
 11 10  1  0
 12 11  2  0
 13 12  1  0
 14 13  2  0
 14  9  1  0
  3 15  1  0
  7 16  1  0
  7 17  1  0
  7 18  1  0
  8 19  1  0
  8 20  1  0
  8 21  1  0
 10 22  1  0
 11 23  1  0
 12 24  1  0
 13 25  1  0
 14 26  1  0
M  END
>  <score>  (9) 
-6.833

$$$$
