=
     RDKit          3D

 32 32  0  0  0  0  0  0  0  0999 V2000
    4.4840   68.9460   63.8410 C   0  0  1  0  0  0  0  0  0  0  0  0
    4.5960   69.3870   65.2950 C   0  0  0  0  0  0  0  0  0  0  0  0
    5.7860   69.8470   65.8800 C   0  0  0  0  0  0  0  0  0  0  0  0
    5.8220   70.2400   67.2240 C   0  0  0  0  0  0  0  0  0  0  0  0
    4.6610   70.1710   67.9990 C   0  0  0  0  0  0  0  0  0  0  0  0
    3.4640   69.7120   67.4400 C   0  0  0  0  0  0  0  0  0  0  0  0
    3.4380   69.3230   66.0980 C   0  0  0  0  0  0  0  0  0  0  0  0
    4.6970   70.5810   69.4090 N   0  0  0  0  0  4  0  0  0  0  0  0
    3.6240   70.8860   69.9490 O   0  0  0  0  0  0  0  0  0  0  0  0
    5.7990   70.5970   69.9760 O   0  0  0  0  0  1  0  0  0  0  0  0
    5.7480   68.4140   63.4000 O   0  0  0  0  0  0  0  0  0  0  0  0
    3.3690   67.9310   63.4640 C   0  0  2  0  0  0  0  0  0  0  0  0
    3.8120   66.5440   63.6840 N   0  0  0  0  0  0  0  0  0  0  0  0
    3.1260   65.6980   64.5380 C   0  0  0  0  0  0  0  0  0  0  0  0
    2.2570   66.1190   65.3010 O   0  0  0  0  0  0  0  0  0  0  0  0
    3.5710   64.2340   64.5410 C   0  0  0  0  0  0  0  0  0  0  0  0
    3.7280   63.7030   66.2300 Cl  0  0  0  0  0  0  0  0  0  0  0  0
    5.1180   64.0490   63.6860 Cl  0  0  0  0  0  0  0  0  0  0  0  0
    2.9660   68.0950   61.9810 C   0  0  0  0  0  0  0  0  0  0  0  0
    3.9570   67.5570   61.1020 O   0  0  0  0  0  0  0  0  0  0  0  0
    4.1886   69.8731   63.3279 H   0  0  0  0  0  0  0  0  0  0  0  0
    6.7030   69.8996   65.2747 H   0  0  0  0  0  0  0  0  0  0  0  0
    6.7611   70.6018   67.6681 H   0  0  0  0  0  0  0  0  0  0  0  0
    2.5511   69.6577   68.0512 H   0  0  0  0  0  0  0  0  0  0  0  0
    2.4967   68.9600   65.6595 H   0  0  0  0  0  0  0  0  0  0  0  0
    6.3009   68.1813   64.1875 H   0  0  0  0  0  0  0  0  0  0  0  0
    2.5047   68.1395   64.1117 H   0  0  0  0  0  0  0  0  0  0  0  0
    4.6483   66.1968   63.1930 H   0  0  0  0  0  0  0  0  0  0  0  0
    2.8255   63.6157   64.0196 H   0  0  0  0  0  0  0  0  0  0  0  0
    2.0146   67.5701   61.8098 H   0  0  0  0  0  0  0  0  0  0  0  0
    2.8663   69.1698   61.7692 H   0  0  0  0  0  0  0  0  0  0  0  0
    4.6900   67.1590   61.6353 H   0  0  0  0  0  0  0  0  0  0  0  0
  2  1  1  0
  3  2  2  0
  4  3  1  0
  5  4  2  0
  6  5  1  0
  7  2  1  0
  7  6  2  0
  8  5  1  0
  9  8  2  0
 10  8  1  0
 11  1  1  0
 12  1  1  0
 13 12  1  0
 14 13  1  0
 15 14  2  0
 16 14  1  0
 17 16  1  0
 18 16  1  0
 19 12  1  0
 20 19  1  0
  1 21  1  6
  3 22  1  0
  4 23  1  0
  6 24  1  0
  7 25  1  0
 11 26  1  0
 12 27  1  1
 13 28  1  0
 16 29  1  0
 19 30  1  0
 19 31  1  0
 20 32  1  0
M  CHG  2   8   1  10  -1
M  END
>  <score>  (1) 
-8.695

$$$$
=
     RDKit          3D

 32 32  0  0  0  0  0  0  0  0999 V2000
    2.6330   68.2410   64.6970 C   0  0  1  0  0  0  0  0  0  0  0  0
    3.5470   69.0220   65.6330 C   0  0  0  0  0  0  0  0  0  0  0  0
    3.1890   69.3980   66.9370 C   0  0  0  0  0  0  0  0  0  0  0  0
    4.0770   70.1160   67.7490 C   0  0  0  0  0  0  0  0  0  0  0  0
    5.3370   70.4680   67.2570 C   0  0  0  0  0  0  0  0  0  0  0  0
    5.7160   70.1090   65.9590 C   0  0  0  0  0  0  0  0  0  0  0  0
    4.8220   69.3930   65.1580 C   0  0  0  0  0  0  0  0  0  0  0  0
    6.2690   71.2220   68.1060 N   0  0  0  0  0  4  0  0  0  0  0  0
    7.1560   70.5870   68.6940 O   0  0  0  0  0  0  0  0  0  0  0  0
    6.1140   72.4490   68.1830 O   0  0  0  0  0  1  0  0  0  0  0  0
    2.7570   66.8320   64.9690 O   0  0  0  0  0  0  0  0  0  0  0  0
    1.1210   68.6030   64.6740 C   0  0  2  0  0  0  0  0  0  0  0  0
    0.3280   67.6300   65.4430 N   0  0  0  0  0  0  0  0  0  0  0  0
   -0.3240   67.9960   66.6080 C   0  0  0  0  0  0  0  0  0  0  0  0
   -0.1000   69.0730   67.1600 O   0  0  0  0  0  0  0  0  0  0  0  0
   -1.2640   66.9520   67.2150 C   0  0  0  0  0  0  0  0  0  0  0  0
   -2.9020   67.6390   67.2660 Cl  0  0  0  0  0  0  0  0  0  0  0  0
   -0.7270   66.5040   68.8490 Cl  0  0  0  0  0  0  0  0  0  0  0  0
    0.5950   68.6370   63.2220 C   0  0  0  0  0  0  0  0  0  0  0  0
   -0.8180   68.4210   63.1660 O   0  0  0  0  0  0  0  0  0  0  0  0
    2.9950   68.5352   63.7008 H   0  0  0  0  0  0  0  0  0  0  0  0
    2.1973   69.1252   67.3270 H   0  0  0  0  0  0  0  0  0  0  0  0
    3.7835   70.4016   68.7699 H   0  0  0  0  0  0  0  0  0  0  0  0
    6.7076   70.3874   65.5727 H   0  0  0  0  0  0  0  0  0  0  0  0
    5.1189   69.1132   64.1364 H   0  0  0  0  0  0  0  0  0  0  0  0
    2.7700   66.6848   65.9479 H   0  0  0  0  0  0  0  0  0  0  0  0
    1.0148   69.5969   65.1332 H   0  0  0  0  0  0  0  0  0  0  0  0
    0.2569   66.6586   65.1079 H   0  0  0  0  0  0  0  0  0  0  0  0
   -1.2579   66.0403   66.5995 H   0  0  0  0  0  0  0  0  0  0  0  0
    0.8231   69.6195   62.7831 H   0  0  0  0  0  0  0  0  0  0  0  0
    1.0878   67.8301   62.6598 H   0  0  0  0  0  0  0  0  0  0  0  0
   -1.1801   68.3657   64.0857 H   0  0  0  0  0  0  0  0  0  0  0  0
  2  1  1  0
  3  2  2  0
  4  3  1  0
  5  4  2  0
  6  5  1  0
  7  2  1  0
  7  6  2  0
  8  5  1  0
  9  8  2  0
 10  8  1  0
 11  1  1  0
 12  1  1  0
 13 12  1  0
 14 13  1  0
 15 14  2  0
 16 14  1  0
 17 16  1  0
 18 16  1  0
 19 12  1  0
 20 19  1  0
  1 21  1  6
  3 22  1  0
  4 23  1  0
  6 24  1  0
  7 25  1  0
 11 26  1  0
 12 27  1  1
 13 28  1  0
 16 29  1  0
 19 30  1  0
 19 31  1  0
 20 32  1  0
M  CHG  2   8   1  10  -1
M  END
>  <score>  (2) 
-8.479

$$$$
=
     RDKit          3D

 32 32  0  0  0  0  0  0  0  0999 V2000
    4.7280   69.0180   63.5700 C   0  0  1  0  0  0  0  0  0  0  0  0
    4.5860   69.3830   65.0420 C   0  0  0  0  0  0  0  0  0  0  0  0
    3.3900   69.2560   65.7650 C   0  0  0  0  0  0  0  0  0  0  0  0
    3.3260   69.6080   67.1190 C   0  0  0  0  0  0  0  0  0  0  0  0
    4.4650   70.0970   67.7640 C   0  0  0  0  0  0  0  0  0  0  0  0
    5.6680   70.2380   67.0650 C   0  0  0  0  0  0  0  0  0  0  0  0
    5.7210   69.8830   65.7140 C   0  0  0  0  0  0  0  0  0  0  0  0
    4.3990   70.4690   69.1840 N   0  0  0  0  0  4  0  0  0  0  0  0
    5.4660   70.5380   69.8110 O   0  0  0  0  0  0  0  0  0  0  0  0
    3.2810   70.6920   69.6690 O   0  0  0  0  0  1  0  0  0  0  0  0
    6.1080   68.7310   63.2760 O   0  0  0  0  0  0  0  0  0  0  0  0
    3.8580   67.8560   63.0130 C   0  0  2  0  0  0  0  0  0  0  0  0
    2.4220   68.1440   63.1670 N   0  0  0  0  0  0  0  0  0  0  0  0
    1.6900   68.7120   62.1380 C   0  0  0  0  0  0  0  0  0  0  0  0
    2.2380   69.1920   61.1460 O   0  0  0  0  0  0  0  0  0  0  0  0
    0.1760   68.7910   62.3490 C   0  0  0  0  0  0  0  0  0  0  0  0
   -0.4390   70.1960   61.4510 Cl  0  0  0  0  0  0  0  0  0  0  0  0
   -0.2070   68.9430   64.0780 Cl  0  0  0  0  0  0  0  0  0  0  0  0
    4.1820   66.5360   63.7470 C   0  0  0  0  0  0  0  0  0  0  0  0
    4.9630   65.6570   62.9330 O   0  0  0  0  0  0  0  0  0  0  0  0
    4.3415   69.9122   63.0591 H   0  0  0  0  0  0  0  0  0  0  0  0
    2.4898   68.8745   65.2610 H   0  0  0  0  0  0  0  0  0  0  0  0
    2.3819   69.4998   67.6731 H   0  0  0  0  0  0  0  0  0  0  0  0
    6.5637   70.6244   67.5733 H   0  0  0  0  0  0  0  0  0  0  0  0
    6.6668   69.9958   65.1638 H   0  0  0  0  0  0  0  0  0  0  0  0
    6.6109   68.6264   64.1223 H   0  0  0  0  0  0  0  0  0  0  0  0
    4.0927   67.7552   61.9431 H   0  0  0  0  0  0  0  0  0  0  0  0
    1.9537   67.9188   64.0563 H   0  0  0  0  0  0  0  0  0  0  0  0
   -0.3013   67.8708   61.9811 H   0  0  0  0  0  0  0  0  0  0  0  0
    4.7441   66.7665   64.6640 H   0  0  0  0  0  0  0  0  0  0  0  0
    3.2329   66.0326   63.9830 H   0  0  0  0  0  0  0  0  0  0  0  0
    5.4961   65.0570   63.5126 H   0  0  0  0  0  0  0  0  0  0  0  0
  2  1  1  0
  3  2  2  0
  4  3  1  0
  5  4  2  0
  6  5  1  0
  7  2  1  0
  7  6  2  0
  8  5  1  0
  9  8  2  0
 10  8  1  0
 11  1  1  0
 12  1  1  0
 13 12  1  0
 14 13  1  0
 15 14  2  0
 16 14  1  0
 17 16  1  0
 18 16  1  0
 19 12  1  0
 20 19  1  0
  1 21  1  6
  3 22  1  0
  4 23  1  0
  6 24  1  0
  7 25  1  0
 11 26  1  0
 12 27  1  6
 13 28  1  0
 16 29  1  0
 19 30  1  0
 19 31  1  0
 20 32  1  0
M  CHG  2   8   1  10  -1
M  END
>  <score>  (3) 
-8.373

$$$$
=
     RDKit          3D

 32 32  0  0  0  0  0  0  0  0999 V2000
    0.9510   68.0670   66.4960 C   0  0  1  0  0  0  0  0  0  0  0  0
    2.2720   68.7830   66.7420 C   0  0  0  0  0  0  0  0  0  0  0  0
    3.3360   68.7920   65.8270 C   0  0  0  0  0  0  0  0  0  0  0  0
    4.5270   69.4720   66.1130 C   0  0  0  0  0  0  0  0  0  0  0  0
    4.6640   70.1500   67.3280 C   0  0  0  0  0  0  0  0  0  0  0  0
    3.6210   70.1520   68.2580 C   0  0  0  0  0  0  0  0  0  0  0  0
    2.4370   69.4710   67.9630 C   0  0  0  0  0  0  0  0  0  0  0  0
    5.9130   70.8620   67.6310 N   0  0  0  0  0  4  0  0  0  0  0  0
    6.9790   70.2550   67.4560 O   0  0  0  0  0  0  0  0  0  0  0  0
    5.8260   72.0280   68.0410 O   0  0  0  0  0  1  0  0  0  0  0  0
    1.2060   66.7480   65.9770 O   0  0  0  0  0  0  0  0  0  0  0  0
   -0.0490   67.9400   67.6810 C   0  0  2  0  0  0  0  0  0  0  0  0
    0.0900   66.6410   68.3590 N   0  0  0  0  0  0  0  0  0  0  0  0
    0.8170   66.5160   69.5300 C   0  0  0  0  0  0  0  0  0  0  0  0
    1.5440   67.4220   69.9360 O   0  0  0  0  0  0  0  0  0  0  0  0
    0.7340   65.1620   70.2380 C   0  0  0  0  0  0  0  0  0  0  0  0
   -0.0300   65.4070   71.8230 Cl  0  0  0  0  0  0  0  0  0  0  0  0
    2.3550   64.4590   70.4310 Cl  0  0  0  0  0  0  0  0  0  0  0  0
   -1.5030   68.0870   67.1810 C   0  0  0  0  0  0  0  0  0  0  0  0
   -2.4160   67.3280   67.9780 O   0  0  0  0  0  0  0  0  0  0  0  0
    0.4427   68.7339   65.7840 H   0  0  0  0  0  0  0  0  0  0  0  0
    3.2333   68.2573   64.8712 H   0  0  0  0  0  0  0  0  0  0  0  0
    5.3511   69.4725   65.3845 H   0  0  0  0  0  0  0  0  0  0  0  0
    3.7311   70.6850   69.2139 H   0  0  0  0  0  0  0  0  0  0  0  0
    1.6176   69.4712   68.6969 H   0  0  0  0  0  0  0  0  0  0  0  0
    1.3283   66.1155   66.7287 H   0  0  0  0  0  0  0  0  0  0  0  0
    0.1838   68.7450   68.3936 H   0  0  0  0  0  0  0  0  0  0  0  0
   -0.3625   65.8090   67.9542 H   0  0  0  0  0  0  0  0  0  0  0  0
    0.1353   64.4616   69.6372 H   0  0  0  0  0  0  0  0  0  0  0  0
   -1.7892   69.1482   67.2243 H   0  0  0  0  0  0  0  0  0  0  0  0
   -1.5508   67.7074   66.1497 H   0  0  0  0  0  0  0  0  0  0  0  0
   -2.2267   67.4854   68.9369 H   0  0  0  0  0  0  0  0  0  0  0  0
  2  1  1  0
  3  2  2  0
  4  3  1  0
  5  4  2  0
  6  5  1  0
  7  2  1  0
  7  6  2  0
  8  5  1  0
  9  8  2  0
 10  8  1  0
 11  1  1  0
 12  1  1  0
 13 12  1  0
 14 13  1  0
 15 14  2  0
 16 14  1  0
 17 16  1  0
 18 16  1  0
 19 12  1  0
 20 19  1  0
  1 21  1  6
  3 22  1  0
  4 23  1  0
  6 24  1  0
  7 25  1  0
 11 26  1  0
 12 27  1  1
 13 28  1  0
 16 29  1  0
 19 30  1  0
 19 31  1  0
 20 32  1  0
M  CHG  2   8   1  10  -1
M  END
>  <score>  (4) 
-7.87

$$$$
=
     RDKit          3D

 32 32  0  0  0  0  0  0  0  0999 V2000
    0.9080   69.3530   68.0760 C   0  0  1  0  0  0  0  0  0  0  0  0
    2.3890   69.7000   68.0050 C   0  0  0  0  0  0  0  0  0  0  0  0
    3.2030   69.4170   66.8980 C   0  0  0  0  0  0  0  0  0  0  0  0
    4.5600   69.7640   66.8940 C   0  0  0  0  0  0  0  0  0  0  0  0
    5.1170   70.3980   68.0080 C   0  0  0  0  0  0  0  0  0  0  0  0
    4.3280   70.6870   69.1260 C   0  0  0  0  0  0  0  0  0  0  0  0
    2.9750   70.3370   69.1190 C   0  0  0  0  0  0  0  0  0  0  0  0
    6.5410   70.7610   68.0070 N   0  0  0  0  0  4  0  0  0  0  0  0
    6.9060   71.6630   68.7740 O   0  0  0  0  0  0  0  0  0  0  0  0
    7.2920   70.1430   67.2390 O   0  0  0  0  0  1  0  0  0  0  0  0
    0.1270   70.5630   68.0480 O   0  0  0  0  0  0  0  0  0  0  0  0
    0.3290   68.3740   67.0150 C   0  0  2  0  0  0  0  0  0  0  0  0
    0.8020   68.7130   65.6630 N   0  0  0  0  0  0  0  0  0  0  0  0
    1.0690   67.7290   64.7270 C   0  0  0  0  0  0  0  0  0  0  0  0
    1.1310   66.5400   65.0430 O   0  0  0  0  0  0  0  0  0  0  0  0
    1.3730   68.2090   63.3070 C   0  0  0  0  0  0  0  0  0  0  0  0
    3.0500   68.7940   63.2620 Cl  0  0  0  0  0  0  0  0  0  0  0  0
    0.2510   69.5030   62.8320 Cl  0  0  0  0  0  0  0  0  0  0  0  0
   -1.2150   68.4130   67.0270 C   0  0  0  0  0  0  0  0  0  0  0  0
   -1.7240   69.4740   66.2140 O   0  0  0  0  0  0  0  0  0  0  0  0
    0.8344   68.7980   69.0229 H   0  0  0  0  0  0  0  0  0  0  0  0
    2.7692   68.9153   66.0204 H   0  0  0  0  0  0  0  0  0  0  0  0
    5.1850   69.5384   66.0173 H   0  0  0  0  0  0  0  0  0  0  0  0
    4.7682   71.1850   70.0025 H   0  0  0  0  0  0  0  0  0  0  0  0
    2.3550   70.5626   69.9992 H   0  0  0  0  0  0  0  0  0  0  0  0
   -0.0618   70.8554   68.9748 H   0  0  0  0  0  0  0  0  0  0  0  0
    0.6783   67.3641   67.2759 H   0  0  0  0  0  0  0  0  0  0  0  0
    0.9369   69.7019   65.4085 H   0  0  0  0  0  0  0  0  0  0  0  0
    1.2458   67.3786   62.5968 H   0  0  0  0  0  0  0  0  0  0  0  0
   -1.5987   67.4556   66.6448 H   0  0  0  0  0  0  0  0  0  0  0  0
   -1.5455   68.5854   68.0619 H   0  0  0  0  0  0  0  0  0  0  0  0
   -2.0709   70.1971   66.7944 H   0  0  0  0  0  0  0  0  0  0  0  0
  2  1  1  0
  3  2  2  0
  4  3  1  0
  5  4  2  0
  6  5  1  0
  7  2  1  0
  7  6  2  0
  8  5  1  0
  9  8  2  0
 10  8  1  0
 11  1  1  0
 12  1  1  0
 13 12  1  0
 14 13  1  0
 15 14  2  0
 16 14  1  0
 17 16  1  0
 18 16  1  0
 19 12  1  0
 20 19  1  0
  1 21  1  1
  3 22  1  0
  4 23  1  0
  6 24  1  0
  7 25  1  0
 11 26  1  0
 12 27  1  1
 13 28  1  0
 16 29  1  0
 19 30  1  0
 19 31  1  0
 20 32  1  0
M  CHG  2   8   1  10  -1
M  END
>  <score>  (5) 
-7.857

$$$$
=
     RDKit          3D

 32 32  0  0  0  0  0  0  0  0999 V2000
    3.9260   69.4560   64.7030 C   0  0  1  0  0  0  0  0  0  0  0  0
    4.6750   69.8370   65.9740 C   0  0  0  0  0  0  0  0  0  0  0  0
    4.0900   69.8490   67.2490 C   0  0  0  0  0  0  0  0  0  0  0  0
    4.8350   70.2080   68.3800 C   0  0  0  0  0  0  0  0  0  0  0  0
    6.1790   70.5640   68.2410 C   0  0  0  0  0  0  0  0  0  0  0  0
    6.7840   70.5650   66.9800 C   0  0  0  0  0  0  0  0  0  0  0  0
    6.0320   70.2040   65.8590 C   0  0  0  0  0  0  0  0  0  0  0  0
    6.9620   70.9430   69.4250 N   0  0  0  0  0  4  0  0  0  0  0  0
    7.8980   71.7390   69.2670 O   0  0  0  0  0  0  0  0  0  0  0  0
    6.6380   70.4440   70.5130 O   0  0  0  0  0  1  0  0  0  0  0  0
    4.8640   69.0050   63.7080 O   0  0  0  0  0  0  0  0  0  0  0  0
    2.7830   68.4060   64.8090 C   0  0  2  0  0  0  0  0  0  0  0  0
    3.2740   67.0520   64.5040 N   0  0  0  0  0  0  0  0  0  0  0  0
    2.7870   65.9440   65.1760 C   0  0  0  0  0  0  0  0  0  0  0  0
    2.0950   66.0570   66.1880 O   0  0  0  0  0  0  0  0  0  0  0  0
    3.2340   64.5810   64.6450 C   0  0  0  0  0  0  0  0  0  0  0  0
    3.7710   63.5940   66.0230 Cl  0  0  0  0  0  0  0  0  0  0  0  0
    4.5510   64.7700   63.4660 Cl  0  0  0  0  0  0  0  0  0  0  0  0
    1.6370   68.7530   63.8330 C   0  0  0  0  0  0  0  0  0  0  0  0
    0.7570   67.6430   63.6360 O   0  0  0  0  0  0  0  0  0  0  0  0
    3.4095   70.3897   64.4357 H   0  0  0  0  0  0  0  0  0  0  0  0
    3.0313   69.5726   67.3624 H   0  0  0  0  0  0  0  0  0  0  0  0
    4.3635   70.2096   69.3738 H   0  0  0  0  0  0  0  0  0  0  0  0
    7.8416   70.8473   66.8718 H   0  0  0  0  0  0  0  0  0  0  0  0
    6.5077   70.2061   64.8672 H   0  0  0  0  0  0  0  0  0  0  0  0
    5.6603   68.6221   64.1546 H   0  0  0  0  0  0  0  0  0  0  0  0
    2.4107   68.4290   65.8438 H   0  0  0  0  0  0  0  0  0  0  0  0
    3.9931   66.9268   63.7773 H   0  0  0  0  0  0  0  0  0  0  0  0
    2.3955   64.0869   64.1323 H   0  0  0  0  0  0  0  0  0  0  0  0
    1.0616   69.5958   64.2437 H   0  0  0  0  0  0  0  0  0  0  0  0
    2.0811   69.0157   62.8615 H   0  0  0  0  0  0  0  0  0  0  0  0
    0.4741   67.2861   64.5150 H   0  0  0  0  0  0  0  0  0  0  0  0
  2  1  1  0
  3  2  2  0
  4  3  1  0
  5  4  2  0
  6  5  1  0
  7  2  1  0
  7  6  2  0
  8  5  1  0
  9  8  2  0
 10  8  1  0
 11  1  1  0
 12  1  1  0
 13 12  1  0
 14 13  1  0
 15 14  2  0
 16 14  1  0
 17 16  1  0
 18 16  1  0
 19 12  1  0
 20 19  1  0
  1 21  1  6
  3 22  1  0
  4 23  1  0
  6 24  1  0
  7 25  1  0
 11 26  1  0
 12 27  1  1
 13 28  1  0
 16 29  1  0
 19 30  1  0
 19 31  1  0
 20 32  1  0
M  CHG  2   8   1  10  -1
M  END
>  <score>  (6) 
-7.343

$$$$
=
     RDKit          3D

 32 32  0  0  0  0  0  0  0  0999 V2000
    1.4490   69.1560   66.7610 C   0  0  1  0  0  0  0  0  0  0  0  0
    2.1940   68.3140   65.7340 C   0  0  0  0  0  0  0  0  0  0  0  0
    2.0130   66.9310   65.5810 C   0  0  0  0  0  0  0  0  0  0  0  0
    2.7290   66.2130   64.6150 C   0  0  0  0  0  0  0  0  0  0  0  0
    3.6410   66.8780   63.7910 C   0  0  0  0  0  0  0  0  0  0  0  0
    3.8430   68.2550   63.9260 C   0  0  0  0  0  0  0  0  0  0  0  0
    3.1230   68.9620   64.8930 C   0  0  0  0  0  0  0  0  0  0  0  0
    4.3950   66.1270   62.7780 N   0  0  0  0  0  4  0  0  0  0  0  0
    5.1990   66.7550   62.0750 O   0  0  0  0  0  0  0  0  0  0  0  0
    4.1810   64.9090   62.6870 O   0  0  0  0  0  1  0  0  0  0  0  0
    0.1590   68.5700   67.0210 O   0  0  0  0  0  0  0  0  0  0  0  0
    2.1410   69.4370   68.1250 C   0  0  2  0  0  0  0  0  0  0  0  0
    3.4960   69.9800   67.9340 N   0  0  0  0  0  0  0  0  0  0  0  0
    4.1470   70.6590   68.9490 C   0  0  0  0  0  0  0  0  0  0  0  0
    3.5540   71.0220   69.9640 O   0  0  0  0  0  0  0  0  0  0  0  0
    5.6140   71.0110   68.6950 C   0  0  0  0  0  0  0  0  0  0  0  0
    6.1490   70.1540   67.2330 Cl  0  0  0  0  0  0  0  0  0  0  0  0
    6.6170   70.5470   70.0880 Cl  0  0  0  0  0  0  0  0  0  0  0  0
    2.2370   68.1410   68.9600 C   0  0  0  0  0  0  0  0  0  0  0  0
    0.9460   67.6670   69.3520 O   0  0  0  0  0  0  0  0  0  0  0  0
    1.4000   70.1421   66.2760 H   0  0  0  0  0  0  0  0  0  0  0  0
    1.2982   66.4030   66.2293 H   0  0  0  0  0  0  0  0  0  0  0  0
    2.5741   65.1295   64.5053 H   0  0  0  0  0  0  0  0  0  0  0  0
    4.5618   68.7769   63.2772 H   0  0  0  0  0  0  0  0  0  0  0  0
    3.2838   70.0449   65.0004 H   0  0  0  0  0  0  0  0  0  0  0  0
    0.0169   68.5054   67.9986 H   0  0  0  0  0  0  0  0  0  0  0  0
    1.5278   70.1794   68.6569 H   0  0  0  0  0  0  0  0  0  0  0  0
    3.9684   69.8521   67.0277 H   0  0  0  0  0  0  0  0  0  0  0  0
    5.7186   72.0968   68.5536 H   0  0  0  0  0  0  0  0  0  0  0  0
    2.7339   67.3655   68.3586 H   0  0  0  0  0  0  0  0  0  0  0  0
    2.8121   68.3622   69.8712 H   0  0  0  0  0  0  0  0  0  0  0  0
    0.8883   67.6458   70.3401 H   0  0  0  0  0  0  0  0  0  0  0  0
  2  1  1  0
  3  2  2  0
  4  3  1  0
  5  4  2  0
  6  5  1  0
  7  2  1  0
  7  6  2  0
  8  5  1  0
  9  8  2  0
 10  8  1  0
 11  1  1  0
 12  1  1  0
 13 12  1  0
 14 13  1  0
 15 14  2  0
 16 14  1  0
 17 16  1  0
 18 16  1  0
 19 12  1  0
 20 19  1  0
  1 21  1  6
  3 22  1  0
  4 23  1  0
  6 24  1  0
  7 25  1  0
 11 26  1  0
 12 27  1  1
 13 28  1  0
 16 29  1  0
 19 30  1  0
 19 31  1  0
 20 32  1  0
M  CHG  2   8   1  10  -1
M  END
>  <score>  (7) 
-7.333

$$$$
=
     RDKit          3D

 32 32  0  0  0  0  0  0  0  0999 V2000
    3.1390   68.3260   64.0500 C   0  0  1  0  0  0  0  0  0  0  0  0
    3.9040   69.0760   65.1340 C   0  0  0  0  0  0  0  0  0  0  0  0
    3.3960   69.3190   66.4190 C   0  0  0  0  0  0  0  0  0  0  0  0
    4.1510   70.0140   67.3730 C   0  0  0  0  0  0  0  0  0  0  0  0
    5.4280   70.4780   67.0430 C   0  0  0  0  0  0  0  0  0  0  0  0
    5.9550   70.2520   65.7680 C   0  0  0  0  0  0  0  0  0  0  0  0
    5.1930   69.5570   64.8240 C   0  0  0  0  0  0  0  0  0  0  0  0
    6.2200   71.2090   68.0400 N   0  0  0  0  0  4  0  0  0  0  0  0
    5.9870   72.4170   68.1900 O   0  0  0  0  0  0  0  0  0  0  0  0
    7.0750   70.5730   68.6740 O   0  0  0  0  0  1  0  0  0  0  0  0
    4.0430   67.4660   63.3300 O   0  0  0  0  0  0  0  0  0  0  0  0
    1.8980   67.4880   64.4710 C   0  0  2  0  0  0  0  0  0  0  0  0
    0.8180   68.3510   64.9750 N   0  0  0  0  0  0  0  0  0  0  0  0
   -0.1130   67.8790   65.8840 C   0  0  0  0  0  0  0  0  0  0  0  0
   -0.2100   66.6790   66.1430 O   0  0  0  0  0  0  0  0  0  0  0  0
   -1.0700   68.9160   66.4740 C   0  0  0  0  0  0  0  0  0  0  0  0
   -0.1940   69.8430   67.7120 Cl  0  0  0  0  0  0  0  0  0  0  0  0
   -2.4930   68.1210   67.1840 Cl  0  0  0  0  0  0  0  0  0  0  0  0
    2.2780   66.4720   65.5710 C   0  0  0  0  0  0  0  0  0  0  0  0
    2.8240   65.2720   65.0160 O   0  0  0  0  0  0  0  0  0  0  0  0
    2.7196   69.1399   63.4404 H   0  0  0  0  0  0  0  0  0  0  0  0
    2.3904   68.9587   66.6813 H   0  0  0  0  0  0  0  0  0  0  0  0
    3.7407   70.1939   68.3776 H   0  0  0  0  0  0  0  0  0  0  0  0
    6.9599   70.6176   65.5099 H   0  0  0  0  0  0  0  0  0  0  0  0
    5.6069   69.3820   63.8200 H   0  0  0  0  0  0  0  0  0  0  0  0
    4.5881   66.9475   63.9735 H   0  0  0  0  0  0  0  0  0  0  0  0
    1.5444   66.9544   63.5764 H   0  0  0  0  0  0  0  0  0  0  0  0
    0.7536   69.3246   64.6452 H   0  0  0  0  0  0  0  0  0  0  0  0
   -1.4254   69.5902   65.6808 H   0  0  0  0  0  0  0  0  0  0  0  0
    3.0252   66.9294   66.2362 H   0  0  0  0  0  0  0  0  0  0  0  0
    1.3652   66.2093   66.1257 H   0  0  0  0  0  0  0  0  0  0  0  0
    3.0999   64.6655   65.7482 H   0  0  0  0  0  0  0  0  0  0  0  0
  2  1  1  0
  3  2  2  0
  4  3  1  0
  5  4  2  0
  6  5  1  0
  7  2  1  0
  7  6  2  0
  8  5  1  0
  9  8  2  0
 10  8  1  0
 11  1  1  0
 12  1  1  0
 13 12  1  0
 14 13  1  0
 15 14  2  0
 16 14  1  0
 17 16  1  0
 18 16  1  0
 19 12  1  0
 20 19  1  0
  1 21  1  6
  3 22  1  0
  4 23  1  0
  6 24  1  0
  7 25  1  0
 11 26  1  0
 12 27  1  6
 13 28  1  0
 16 29  1  0
 19 30  1  0
 19 31  1  0
 20 32  1  0
M  CHG  2   8   1  10  -1
M  END
>  <score>  (8) 
-7.1

$$$$
=
     RDKit          3D

 32 32  0  0  0  0  0  0  0  0999 V2000
    4.0200   67.4660   64.2700 C   0  0  1  0  0  0  0  0  0  0  0  0
    2.5930   67.7630   64.7130 C   0  0  0  0  0  0  0  0  0  0  0  0
    2.0340   67.2890   65.9090 C   0  0  0  0  0  0  0  0  0  0  0  0
    0.7140   67.5990   66.2610 C   0  0  0  0  0  0  0  0  0  0  0  0
   -0.0640   68.3880   65.4090 C   0  0  0  0  0  0  0  0  0  0  0  0
    0.4680   68.8690   64.2080 C   0  0  0  0  0  0  0  0  0  0  0  0
    1.7870   68.5540   63.8680 C   0  0  0  0  0  0  0  0  0  0  0  0
   -1.4490   68.7130   65.7740 N   0  0  0  0  0  4  0  0  0  0  0  0
   -2.3030   68.6890   64.8760 O   0  0  0  0  0  0  0  0  0  0  0  0
   -1.6810   68.9910   66.9590 O   0  0  0  0  0  1  0  0  0  0  0  0
    4.0360   67.1720   62.8600 O   0  0  0  0  0  0  0  0  0  0  0  0
    5.1160   68.5310   64.5590 C   0  0  2  0  0  0  0  0  0  0  0  0
    4.7780   69.3370   65.7430 N   0  0  0  0  0  0  0  0  0  0  0  0
    5.7620   69.8090   66.5950 C   0  0  0  0  0  0  0  0  0  0  0  0
    6.9230   69.4060   66.5240 O   0  0  0  0  0  0  0  0  0  0  0  0
    5.3060   70.7860   67.6800 C   0  0  0  0  0  0  0  0  0  0  0  0
    6.5780   70.8790   68.9180 Cl  0  0  0  0  0  0  0  0  0  0  0  0
    3.7740   70.2450   68.4030 Cl  0  0  0  0  0  0  0  0  0  0  0  0
    5.2880   69.4740   63.3470 C   0  0  0  0  0  0  0  0  0  0  0  0
    6.0740   68.8710   62.3150 O   0  0  0  0  0  0  0  0  0  0  0  0
    4.2992   66.6121   64.9048 H   0  0  0  0  0  0  0  0  0  0  0  0
    2.6413   66.6644   66.5806 H   0  0  0  0  0  0  0  0  0  0  0  0
    0.2914   67.2229   67.2044 H   0  0  0  0  0  0  0  0  0  0  0  0
   -0.1454   69.4890   63.5377 H   0  0  0  0  0  0  0  0  0  0  0  0
    2.2045   68.9306   62.9226 H   0  0  0  0  0  0  0  0  0  0  0  0
    4.0893   66.1923   62.7278 H   0  0  0  0  0  0  0  0  0  0  0  0
    6.0554   67.9909   64.7480 H   0  0  0  0  0  0  0  0  0  0  0  0
    3.7909   69.5541   65.9416 H   0  0  0  0  0  0  0  0  0  0  0  0
    5.1361   71.7800   67.2406 H   0  0  0  0  0  0  0  0  0  0  0  0
    4.2950   69.7187   62.9419 H   0  0  0  0  0  0  0  0  0  0  0  0
    5.8085   70.3807   63.6890 H   0  0  0  0  0  0  0  0  0  0  0  0
    6.7896   68.3220   62.7233 H   0  0  0  0  0  0  0  0  0  0  0  0
  2  1  1  0
  3  2  2  0
  4  3  1  0
  5  4  2  0
  6  5  1  0
  7  2  1  0
  7  6  2  0
  8  5  1  0
  9  8  2  0
 10  8  1  0
 11  1  1  0
 12  1  1  0
 13 12  1  0
 14 13  1  0
 15 14  2  0
 16 14  1  0
 17 16  1  0
 18 16  1  0
 19 12  1  0
 20 19  1  0
  1 21  1  1
  3 22  1  0
  4 23  1  0
  6 24  1  0
  7 25  1  0
 11 26  1  0
 12 27  1  1
 13 28  1  0
 16 29  1  0
 19 30  1  0
 19 31  1  0
 20 32  1  0
M  CHG  2   8   1  10  -1
M  END
>  <score>  (9) 
-7.052

$$$$
