=
     RDKit          3D

 64 67  0  0  0  0  0  0  0  0999 V2000
    0.1880   65.4850   70.4570 C   0  0  0  0  0  0  0  0  0  0  0  0
    0.0520   66.3410   71.3220 O   0  0  0  0  0  0  0  0  0  0  0  0
   -0.3370   65.5940   69.1820 N   0  0  0  0  0  0  0  0  0  0  0  0
    0.9800   59.9390   72.8350 C   0  0  0  0  0  0  0  0  0  0  0  0
    0.3600   61.1620   72.5530 C   0  0  0  0  0  0  0  0  0  0  0  0
    1.0010   62.0960   71.7400 C   0  0  0  0  0  0  0  0  0  0  0  0
    0.3400   63.2750   71.5030 O   0  0  0  0  0  0  0  0  0  0  0  0
    0.9660   64.2350   70.7240 C   0  0  0  0  0  0  0  0  0  0  0  0
    2.1600   64.0720   70.1390 C   0  0  0  0  0  0  0  0  0  0  0  0
    2.8940   62.8170   70.3480 C   0  0  0  0  0  0  0  0  0  0  0  0
    3.9820   62.6490   69.8150 O   0  0  0  0  0  0  0  0  0  0  0  0
    2.2540   61.8110   71.2080 C   0  0  0  0  0  0  0  0  0  0  0  0
    2.8870   60.5960   71.4780 C   0  0  0  0  0  0  0  0  0  0  0  0
    2.2540   59.6540   72.2940 C   0  0  0  0  0  0  0  0  0  0  0  0
   -0.9360   59.0810   73.9870 C   0  0  0  0  0  0  0  0  0  0  0  0
    0.4310   58.9570   73.6230 O   0  0  0  0  0  0  0  0  0  0  0  0
    2.7860   58.4320   72.6210 O   0  0  0  0  0  0  0  0  0  0  0  0
    2.6150   57.3630   71.7000 C   0  0  0  0  0  0  0  0  0  0  0  0
   -0.8680   66.8590   68.7130 C   0  0  0  0  0  0  0  0  0  0  0  0
   -0.5950   67.1930   67.2400 C   0  0  0  0  0  0  0  0  0  0  0  0
    0.7950   67.7440   66.8640 C   0  0  0  0  0  0  0  0  0  0  0  0
    1.3540   68.7290   67.9090 C   0  0  0  0  0  0  0  0  0  0  0  0
    2.4070   69.6850   67.3530 C   0  0  0  0  0  0  0  0  0  0  0  0
    3.1800   68.9960   66.2620 N   0  0  0  0  0  4  0  0  0  0  0  0
    2.3250   68.6730   65.0620 C   0  0  0  0  0  0  0  0  0  0  0  0
    0.8860   68.3410   65.4600 C   0  0  0  0  0  0  0  0  0  0  0  0
    4.4410   69.7330   65.8610 C   0  0  0  0  0  0  0  0  0  0  0  0
    5.2910   70.1270   67.0390 C   0  0  0  0  0  0  0  0  0  0  0  0
    4.6990   70.4450   68.2720 C   0  0  0  0  0  0  0  0  0  0  0  0
    5.4920   70.7840   69.3680 C   0  0  0  0  0  0  0  0  0  0  0  0
    6.8800   70.8140   69.2460 C   0  0  0  0  0  0  0  0  0  0  0  0
    7.4780   70.5080   68.0260 C   0  0  0  0  0  0  0  0  0  0  0  0
    6.6900   70.1670   66.9250 C   0  0  0  0  0  0  0  0  0  0  0  0
   -0.3508   64.7716   68.5620 H   0  0  0  0  0  0  0  0  0  0  0  0
   -0.6319   61.3860   72.9724 H   0  0  0  0  0  0  0  0  0  0  0  0
    2.5854   64.8679   69.5101 H   0  0  0  0  0  0  0  0  0  0  0  0
    3.8778   60.3815   71.0511 H   0  0  0  0  0  0  0  0  0  0  0  0
   -1.0242   59.0890   75.0834 H   0  0  0  0  0  0  0  0  0  0  0  0
   -1.3402   60.0195   73.5798 H   0  0  0  0  0  0  0  0  0  0  0  0
   -1.5025   58.2306   73.5798 H   0  0  0  0  0  0  0  0  0  0  0  0
    2.4647   56.4237   72.2523 H   0  0  0  0  0  0  0  0  0  0  0  0
    1.7371   57.5609   71.0675 H   0  0  0  0  0  0  0  0  0  0  0  0
    3.5108   57.2771   71.0675 H   0  0  0  0  0  0  0  0  0  0  0  0
   -1.9582   66.8423   68.8588 H   0  0  0  0  0  0  0  0  0  0  0  0
   -0.3504   67.6349   69.2962 H   0  0  0  0  0  0  0  0  0  0  0  0
   -0.7469   66.2693   66.6624 H   0  0  0  0  0  0  0  0  0  0  0  0
   -1.2859   68.0189   67.0150 H   0  0  0  0  0  0  0  0  0  0  0  0
    1.4334   66.8483   66.8595 H   0  0  0  0  0  0  0  0  0  0  0  0
    0.5189   69.3253   68.3052 H   0  0  0  0  0  0  0  0  0  0  0  0
    1.8467   68.1263   68.6862 H   0  0  0  0  0  0  0  0  0  0  0  0
    1.9124   70.5786   66.9444 H   0  0  0  0  0  0  0  0  0  0  0  0
    3.0943   69.9837   68.1583 H   0  0  0  0  0  0  0  0  0  0  0  0
    3.4839   68.1014   66.6722 H   0  0  0  0  0  0  0  0  0  0  0  0
    2.3160   69.5419   64.3875 H   0  0  0  0  0  0  0  0  0  0  0  0
    2.7538   67.7901   64.5655 H   0  0  0  0  0  0  0  0  0  0  0  0
    0.2885   69.2641   65.4288 H   0  0  0  0  0  0  0  0  0  0  0  0
    0.5053   67.5915   64.7506 H   0  0  0  0  0  0  0  0  0  0  0  0
    5.0342   69.0808   65.2031 H   0  0  0  0  0  0  0  0  0  0  0  0
    4.1338   70.6587   65.3523 H   0  0  0  0  0  0  0  0  0  0  0  0
    3.6039   70.4266   68.3740 H   0  0  0  0  0  0  0  0  0  0  0  0
    5.0207   71.0284   70.3314 H   0  0  0  0  0  0  0  0  0  0  0  0
    7.5029   71.0793   70.1129 H   0  0  0  0  0  0  0  0  0  0  0  0
    8.5734   70.5350   67.9296 H   0  0  0  0  0  0  0  0  0  0  0  0
    7.1676   69.9284   65.9632 H   0  0  0  0  0  0  0  0  0  0  0  0
  2  1  2  0
  3  1  1  0
  5  4  2  0
  6  5  1  0
  7  6  1  0
  8  7  1  0
  8  1  1  0
  9  8  2  0
 10  9  1  0
 11 10  2  0
 12 10  1  0
 12  6  2  0
 13 12  1  0
 14  4  1  0
 14 13  2  0
 16 15  1  0
 16  4  1  0
 17 14  1  0
 18 17  1  0
 19  3  1  0
 20 19  1  0
 21 20  1  0
 22 21  1  0
 23 22  1  0
 24 23  1  0
 25 24  1  0
 26 25  1  0
 26 21  1  0
 27 24  1  0
 28 27  1  0
 29 28  2  0
 30 29  1  0
 31 30  2  0
 32 31  1  0
 33 28  1  0
 33 32  2  0
  3 34  1  0
  5 35  1  0
  9 36  1  0
 13 37  1  0
 15 38  1  0
 15 39  1  0
 15 40  1  0
 18 41  1  0
 18 42  1  0
 18 43  1  0
 19 44  1  0
 19 45  1  0
 20 46  1  0
 20 47  1  0
 21 48  1  0
 22 49  1  0
 22 50  1  0
 23 51  1  0
 23 52  1  0
 24 53  1  0
 25 54  1  0
 25 55  1  0
 26 56  1  0
 26 57  1  0
 27 58  1  0
 27 59  1  0
 29 60  1  0
 30 61  1  0
 31 62  1  0
 32 63  1  0
 33 64  1  0
M  CHG  1  24   1
M  END
>  <score>  (1) 
-10.768

$$$$
=
     RDKit          3D

 64 67  0  0  0  0  0  0  0  0999 V2000
    0.3180   66.4450   69.2030 C   0  0  0  0  0  0  0  0  0  0  0  0
   -0.6250   66.4510   69.9840 O   0  0  0  0  0  0  0  0  0  0  0  0
    1.5160   65.8030   69.4550 N   0  0  0  0  0  0  0  0  0  0  0  0
    2.2910   67.8460   63.6180 C   0  0  0  0  0  0  0  0  0  0  0  0
    2.2890   67.2780   64.8980 C   0  0  0  0  0  0  0  0  0  0  0  0
    1.2110   67.4980   65.7550 C   0  0  0  0  0  0  0  0  0  0  0  0
    1.2710   66.9130   66.9960 O   0  0  0  0  0  0  0  0  0  0  0  0
    0.2280   67.1390   67.8800 C   0  0  0  0  0  0  0  0  0  0  0  0
   -0.8670   67.8520   67.5900 C   0  0  0  0  0  0  0  0  0  0  0  0
   -0.9840   68.4790   66.2660 C   0  0  0  0  0  0  0  0  0  0  0  0
   -1.9810   69.1270   65.9820 O   0  0  0  0  0  0  0  0  0  0  0  0
    0.1380   68.2780   65.3380 C   0  0  0  0  0  0  0  0  0  0  0  0
    0.1220   68.8510   64.0640 C   0  0  0  0  0  0  0  0  0  0  0  0
    1.2000   68.6400   63.1990 C   0  0  0  0  0  0  0  0  0  0  0  0
    4.1980   66.6000   62.8820 C   0  0  0  0  0  0  0  0  0  0  0  0
    3.3030   67.6880   62.7040 O   0  0  0  0  0  0  0  0  0  0  0  0
    1.2850   69.1550   61.9300 O   0  0  0  0  0  0  0  0  0  0  0  0
    0.1480   69.8270   61.4060 C   0  0  0  0  0  0  0  0  0  0  0  0
    1.6330   64.8740   70.5620 C   0  0  0  0  0  0  0  0  0  0  0  0
    2.8970   64.0040   70.5730 C   0  0  0  0  0  0  0  0  0  0  0  0
    2.7630   62.5310   71.0100 C   0  0  0  0  0  0  0  0  0  0  0  0
    2.9930   62.3290   72.5200 C   0  0  0  0  0  0  0  0  0  0  0  0
    3.4100   60.9080   72.8950 C   0  0  0  0  0  0  0  0  0  0  0  0
    2.7710   59.9340   71.9440 N   0  0  0  0  0  4  0  0  0  0  0  0
    3.2760   60.0900   70.5300 C   0  0  0  0  0  0  0  0  0  0  0  0
    3.6070   61.5470   70.2010 C   0  0  0  0  0  0  0  0  0  0  0  0
    2.8610   58.4950   72.4080 C   0  0  0  0  0  0  0  0  0  0  0  0
    1.5830   57.9950   73.0230 C   0  0  0  0  0  0  0  0  0  0  0  0
    0.6100   58.8970   73.4810 C   0  0  0  0  0  0  0  0  0  0  0  0
   -0.5860   58.4290   74.0270 C   0  0  0  0  0  0  0  0  0  0  0  0
   -0.8210   57.0600   74.1250 C   0  0  0  0  0  0  0  0  0  0  0  0
    0.1390   56.1540   73.6810 C   0  0  0  0  0  0  0  0  0  0  0  0
    1.3370   56.6170   73.1330 C   0  0  0  0  0  0  0  0  0  0  0  0
    2.3310   65.9858   68.8523 H   0  0  0  0  0  0  0  0  0  0  0  0
    3.1367   66.6590   65.2271 H   0  0  0  0  0  0  0  0  0  0  0  0
   -1.6694   67.9672   68.3335 H   0  0  0  0  0  0  0  0  0  0  0  0
   -0.7331   69.4642   63.7435 H   0  0  0  0  0  0  0  0  0  0  0  0
    4.3465   66.4195   63.9569 H   0  0  0  0  0  0  0  0  0  0  0  0
    3.7768   65.6983   62.4135 H   0  0  0  0  0  0  0  0  0  0  0  0
    5.1640   66.8394   62.4135 H   0  0  0  0  0  0  0  0  0  0  0  0
   -0.4747   70.1950   62.2348 H   0  0  0  0  0  0  0  0  0  0  0  0
    0.4762   70.6763   60.7888 H   0  0  0  0  0  0  0  0  0  0  0  0
   -0.4378   69.1299   60.7888 H   0  0  0  0  0  0  0  0  0  0  0  0
    1.6162   65.4567   71.4948 H   0  0  0  0  0  0  0  0  0  0  0  0
    0.7902   64.1751   70.4558 H   0  0  0  0  0  0  0  0  0  0  0  0
    3.3031   64.0054   69.5507 H   0  0  0  0  0  0  0  0  0  0  0  0
    3.5358   64.4603   71.3436 H   0  0  0  0  0  0  0  0  0  0  0  0
    1.7128   62.2912   70.7872 H   0  0  0  0  0  0  0  0  0  0  0  0
    3.7843   63.0201   72.8459 H   0  0  0  0  0  0  0  0  0  0  0  0
    2.0324   62.5236   73.0194 H   0  0  0  0  0  0  0  0  0  0  0  0
    4.5045   60.8179   72.8325 H   0  0  0  0  0  0  0  0  0  0  0  0
    3.0835   60.6876   73.9220 H   0  0  0  0  0  0  0  0  0  0  0  0
    1.7701   60.1773   71.9415 H   0  0  0  0  0  0  0  0  0  0  0  0
    4.1847   59.4823   70.4076 H   0  0  0  0  0  0  0  0  0  0  0  0
    2.4819   59.7574   69.8453 H   0  0  0  0  0  0  0  0  0  0  0  0
    4.6693   61.7270   70.4224 H   0  0  0  0  0  0  0  0  0  0  0  0
    3.3851   61.7100   69.1360 H   0  0  0  0  0  0  0  0  0  0  0  0
    3.1044   57.8620   71.5419 H   0  0  0  0  0  0  0  0  0  0  0  0
    3.6399   58.4473   73.1832 H   0  0  0  0  0  0  0  0  0  0  0  0
    0.7913   59.9796   73.4091 H   0  0  0  0  0  0  0  0  0  0  0  0
   -1.3445   59.1429   74.3806 H   0  0  0  0  0  0  0  0  0  0  0  0
   -1.7656   56.6938   74.5535 H   0  0  0  0  0  0  0  0  0  0  0  0
   -0.0466   55.0728   73.7621 H   0  0  0  0  0  0  0  0  0  0  0  0
    2.0929   55.8975   72.7852 H   0  0  0  0  0  0  0  0  0  0  0  0
  2  1  2  0
  3  1  1  0
  5  4  2  0
  6  5  1  0
  7  6  1  0
  8  7  1  0
  8  1  1  0
  9  8  2  0
 10  9  1  0
 11 10  2  0
 12 10  1  0
 12  6  2  0
 13 12  1  0
 14  4  1  0
 14 13  2  0
 16 15  1  0
 16  4  1  0
 17 14  1  0
 18 17  1  0
 19  3  1  0
 20 19  1  0
 21 20  1  0
 22 21  1  0
 23 22  1  0
 24 23  1  0
 25 24  1  0
 26 25  1  0
 26 21  1  0
 27 24  1  0
 28 27  1  0
 29 28  2  0
 30 29  1  0
 31 30  2  0
 32 31  1  0
 33 28  1  0
 33 32  2  0
  3 34  1  0
  5 35  1  0
  9 36  1  0
 13 37  1  0
 15 38  1  0
 15 39  1  0
 15 40  1  0
 18 41  1  0
 18 42  1  0
 18 43  1  0
 19 44  1  0
 19 45  1  0
 20 46  1  0
 20 47  1  0
 21 48  1  0
 22 49  1  0
 22 50  1  0
 23 51  1  0
 23 52  1  0
 24 53  1  0
 25 54  1  0
 25 55  1  0
 26 56  1  0
 26 57  1  0
 27 58  1  0
 27 59  1  0
 29 60  1  0
 30 61  1  0
 31 62  1  0
 32 63  1  0
 33 64  1  0
M  CHG  1  24   1
M  END
>  <score>  (2) 
-10.652

$$$$
=
     RDKit          3D

 64 67  0  0  0  0  0  0  0  0999 V2000
   -0.1110   67.2680   68.1680 C   0  0  0  0  0  0  0  0  0  0  0  0
   -1.2870   67.6110   68.1750 O   0  0  0  0  0  0  0  0  0  0  0  0
    0.4630   66.4830   69.1520 N   0  0  0  0  0  0  0  0  0  0  0  0
    4.8720   69.9030   65.8740 C   0  0  0  0  0  0  0  0  0  0  0  0
    3.9280   69.5040   66.8270 C   0  0  0  0  0  0  0  0  0  0  0  0
    2.8200   68.7530   66.4370 C   0  0  0  0  0  0  0  0  0  0  0  0
    1.9310   68.3940   67.4190 O   0  0  0  0  0  0  0  0  0  0  0  0
    0.8050   67.6730   67.0570 C   0  0  0  0  0  0  0  0  0  0  0  0
    0.5450   67.2540   65.8110 C   0  0  0  0  0  0  0  0  0  0  0  0
    1.4790   67.5970   64.7310 C   0  0  0  0  0  0  0  0  0  0  0  0
    1.2610   67.2160   63.5890 O   0  0  0  0  0  0  0  0  0  0  0  0
    2.6550   68.3970   65.1020 C   0  0  0  0  0  0  0  0  0  0  0  0
    3.5880   68.7850   64.1380 C   0  0  0  0  0  0  0  0  0  0  0  0
    4.7000   69.5420   64.5190 C   0  0  0  0  0  0  0  0  0  0  0  0
    6.6140   70.4530   67.4220 C   0  0  0  0  0  0  0  0  0  0  0  0
    5.9930   70.6430   66.1590 O   0  0  0  0  0  0  0  0  0  0  0  0
    5.6750   69.9740   63.6540 O   0  0  0  0  0  0  0  0  0  0  0  0
    5.7310   69.3800   62.3640 C   0  0  0  0  0  0  0  0  0  0  0  0
   -0.3680   65.8010   70.1250 C   0  0  0  0  0  0  0  0  0  0  0  0
    0.3390   65.3570   71.4130 C   0  0  0  0  0  0  0  0  0  0  0  0
    0.8590   63.9070   71.4950 C   0  0  0  0  0  0  0  0  0  0  0  0
    1.2520   63.4910   72.9240 C   0  0  0  0  0  0  0  0  0  0  0  0
    2.2460   62.3310   72.9770 C   0  0  0  0  0  0  0  0  0  0  0  0
    2.0080   61.4180   71.8070 N   0  0  0  0  0  4  0  0  0  0  0  0
    2.3060   62.0810   70.4850 C   0  0  0  0  0  0  0  0  0  0  0  0
    1.9790   63.5750   70.5090 C   0  0  0  0  0  0  0  0  0  0  0  0
    2.7180   60.0860   71.9310 C   0  0  0  0  0  0  0  0  0  0  0  0
    1.8570   59.0140   72.5420 C   0  0  0  0  0  0  0  0  0  0  0  0
    2.2570   57.6690   72.5050 C   0  0  0  0  0  0  0  0  0  0  0  0
    1.4680   56.6820   73.0970 C   0  0  0  0  0  0  0  0  0  0  0  0
    0.2730   57.0250   73.7260 C   0  0  0  0  0  0  0  0  0  0  0  0
   -0.1380   58.3550   73.7620 C   0  0  0  0  0  0  0  0  0  0  0  0
    0.6470   59.3470   73.1730 C   0  0  0  0  0  0  0  0  0  0  0  0
    1.4872   66.3824   69.1937 H   0  0  0  0  0  0  0  0  0  0  0  0
    4.0601   69.7827   67.8829 H   0  0  0  0  0  0  0  0  0  0  0  0
   -0.3568   66.6605   65.5998 H   0  0  0  0  0  0  0  0  0  0  0  0
    3.4489   68.4968   63.0856 H   0  0  0  0  0  0  0  0  0  0  0  0
    5.8924   70.6738   68.2223 H   0  0  0  0  0  0  0  0  0  0  0  0
    6.9525   69.4102   67.5110 H   0  0  0  0  0  0  0  0  0  0  0  0
    7.4781   71.1279   67.5110 H   0  0  0  0  0  0  0  0  0  0  0  0
    5.8338   68.2896   62.4666 H   0  0  0  0  0  0  0  0  0  0  0  0
    4.8071   69.6110   61.8135 H   0  0  0  0  0  0  0  0  0  0  0  0
    6.5955   69.7796   61.8135 H   0  0  0  0  0  0  0  0  0  0  0  0
   -1.1858   66.4809   70.4061 H   0  0  0  0  0  0  0  0  0  0  0  0
   -0.7042   64.8756   69.6345 H   0  0  0  0  0  0  0  0  0  0  0  0
    1.2031   66.0223   71.5569 H   0  0  0  0  0  0  0  0  0  0  0  0
   -0.4419   65.4112   72.1858 H   0  0  0  0  0  0  0  0  0  0  0  0
   -0.0083   63.3040   71.1883 H   0  0  0  0  0  0  0  0  0  0  0  0
    1.7046   64.3589   73.4258 H   0  0  0  0  0  0  0  0  0  0  0  0
    0.3331   63.1488   73.4224 H   0  0  0  0  0  0  0  0  0  0  0  0
    3.2723   62.7244   72.9331 H   0  0  0  0  0  0  0  0  0  0  0  0
    2.1094   61.7716   73.9142 H   0  0  0  0  0  0  0  0  0  0  0  0
    0.9988   61.2131   71.8265 H   0  0  0  0  0  0  0  0  0  0  0  0
    3.3746   61.9546   70.2568 H   0  0  0  0  0  0  0  0  0  0  0  0
    1.6774   61.6070   69.7168 H   0  0  0  0  0  0  0  0  0  0  0  0
    2.8828   64.1305   70.7999 H   0  0  0  0  0  0  0  0  0  0  0  0
    1.6383   63.8615   69.5031 H   0  0  0  0  0  0  0  0  0  0  0  0
    3.0257   59.7583   70.9270 H   0  0  0  0  0  0  0  0  0  0  0  0
    3.5804   60.2343   72.5976 H   0  0  0  0  0  0  0  0  0  0  0  0
    3.1975   57.3915   72.0066 H   0  0  0  0  0  0  0  0  0  0  0  0
    1.7902   55.6307   73.0670 H   0  0  0  0  0  0  0  0  0  0  0  0
   -0.3457   56.2452   74.1941 H   0  0  0  0  0  0  0  0  0  0  0  0
   -1.0834   58.6242   74.2557 H   0  0  0  0  0  0  0  0  0  0  0  0
    0.3164   60.3957   73.2030 H   0  0  0  0  0  0  0  0  0  0  0  0
  2  1  2  0
  3  1  1  0
  5  4  2  0
  6  5  1  0
  7  6  1  0
  8  7  1  0
  8  1  1  0
  9  8  2  0
 10  9  1  0
 11 10  2  0
 12 10  1  0
 12  6  2  0
 13 12  1  0
 14  4  1  0
 14 13  2  0
 16 15  1  0
 16  4  1  0
 17 14  1  0
 18 17  1  0
 19  3  1  0
 20 19  1  0
 21 20  1  0
 22 21  1  0
 23 22  1  0
 24 23  1  0
 25 24  1  0
 26 25  1  0
 26 21  1  0
 27 24  1  0
 28 27  1  0
 29 28  2  0
 30 29  1  0
 31 30  2  0
 32 31  1  0
 33 28  1  0
 33 32  2  0
  3 34  1  0
  5 35  1  0
  9 36  1  0
 13 37  1  0
 15 38  1  0
 15 39  1  0
 15 40  1  0
 18 41  1  0
 18 42  1  0
 18 43  1  0
 19 44  1  0
 19 45  1  0
 20 46  1  0
 20 47  1  0
 21 48  1  0
 22 49  1  0
 22 50  1  0
 23 51  1  0
 23 52  1  0
 24 53  1  0
 25 54  1  0
 25 55  1  0
 26 56  1  0
 26 57  1  0
 27 58  1  0
 27 59  1  0
 29 60  1  0
 30 61  1  0
 31 62  1  0
 32 63  1  0
 33 64  1  0
M  CHG  1  24   1
M  END
>  <score>  (3) 
-10.617

$$$$
=
     RDKit          3D

 64 67  0  0  0  0  0  0  0  0999 V2000
    2.7810   63.1010   70.2600 C   0  0  0  0  0  0  0  0  0  0  0  0
    3.4710   63.3990   69.2930 O   0  0  0  0  0  0  0  0  0  0  0  0
    2.0190   64.0130   70.9660 N   0  0  0  0  0  0  0  0  0  0  0  0
    0.6250   58.6510   73.8080 C   0  0  0  0  0  0  0  0  0  0  0  0
    0.8070   59.9420   73.3000 C   0  0  0  0  0  0  0  0  0  0  0  0
    1.6820   60.1540   72.2350 C   0  0  0  0  0  0  0  0  0  0  0  0
    1.8170   61.4430   71.7830 O   0  0  0  0  0  0  0  0  0  0  0  0
    2.7020   61.6880   70.7460 C   0  0  0  0  0  0  0  0  0  0  0  0
    3.4060   60.7400   70.1140 C   0  0  0  0  0  0  0  0  0  0  0  0
    3.2780   59.3430   70.5500 C   0  0  0  0  0  0  0  0  0  0  0  0
    3.9080   58.4640   69.9780 O   0  0  0  0  0  0  0  0  0  0  0  0
    2.3710   59.0820   71.6770 C   0  0  0  0  0  0  0  0  0  0  0  0
    2.2010   57.7860   72.1710 C   0  0  0  0  0  0  0  0  0  0  0  0
    1.3280   57.5650   73.2400 C   0  0  0  0  0  0  0  0  0  0  0  0
   -0.0850   59.0910   76.0520 C   0  0  0  0  0  0  0  0  0  0  0  0
   -0.2130   58.3420   74.8520 O   0  0  0  0  0  0  0  0  0  0  0  0
    1.0870   56.3350   73.8000 O   0  0  0  0  0  0  0  0  0  0  0  0
    2.1560   55.6920   74.4810 C   0  0  0  0  0  0  0  0  0  0  0  0
    1.7910   65.3440   70.4390 C   0  0  0  0  0  0  0  0  0  0  0  0
    0.3490   65.6590   70.0180 C   0  0  0  0  0  0  0  0  0  0  0  0
    0.1260   66.4190   68.6950 C   0  0  0  0  0  0  0  0  0  0  0  0
    1.0010   67.6810   68.5730 C   0  0  0  0  0  0  0  0  0  0  0  0
    0.4500   68.7220   67.6010 C   0  0  0  0  0  0  0  0  0  0  0  0
   -0.2860   68.0260   66.4890 N   0  0  0  0  0  4  0  0  0  0  0  0
   -1.5190   67.3040   66.9740 C   0  0  0  0  0  0  0  0  0  0  0  0
   -1.3350   66.7460   68.3860 C   0  0  0  0  0  0  0  0  0  0  0  0
   -0.6000   68.9330   65.3170 C   0  0  0  0  0  0  0  0  0  0  0  0
    0.4290   68.8550   64.2220 C   0  0  0  0  0  0  0  0  0  0  0  0
    0.0560   69.0200   62.8790 C   0  0  0  0  0  0  0  0  0  0  0  0
    1.0170   68.9740   61.8690 C   0  0  0  0  0  0  0  0  0  0  0  0
    2.3560   68.7600   62.1860 C   0  0  0  0  0  0  0  0  0  0  0  0
    2.7380   68.5870   63.5150 C   0  0  0  0  0  0  0  0  0  0  0  0
    1.7810   68.6330   64.5300 C   0  0  0  0  0  0  0  0  0  0  0  0
    1.6104   63.7450   71.8727 H   0  0  0  0  0  0  0  0  0  0  0  0
    0.2604   60.7890   73.7403 H   0  0  0  0  0  0  0  0  0  0  0  0
    4.0716   61.0041   69.2790 H   0  0  0  0  0  0  0  0  0  0  0  0
    2.7504   56.9456   71.7217 H   0  0  0  0  0  0  0  0  0  0  0  0
   -0.1996   58.4207   76.9166 H   0  0  0  0  0  0  0  0  0  0  0  0
    0.9072   59.5649   76.0844 H   0  0  0  0  0  0  0  0  0  0  0  0
   -0.8635   59.8675   76.0844 H   0  0  0  0  0  0  0  0  0  0  0  0
    2.0060   55.7823   75.5670 H   0  0  0  0  0  0  0  0  0  0  0  0
    2.1818   54.6284   74.2015 H   0  0  0  0  0  0  0  0  0  0  0  0
    3.1076   56.1677   74.2015 H   0  0  0  0  0  0  0  0  0  0  0  0
    2.0818   66.0681   71.2143 H   0  0  0  0  0  0  0  0  0  0  0  0
    2.3908   65.4073   69.5191 H   0  0  0  0  0  0  0  0  0  0  0  0
   -0.1841   64.7002   69.9373 H   0  0  0  0  0  0  0  0  0  0  0  0
   -0.0171   66.3481   70.7933 H   0  0  0  0  0  0  0  0  0  0  0  0
    0.4494   65.7002   67.9277 H   0  0  0  0  0  0  0  0  0  0  0  0
    1.0823   68.1440   69.5675 H   0  0  0  0  0  0  0  0  0  0  0  0
    1.9754   67.3580   68.1777 H   0  0  0  0  0  0  0  0  0  0  0  0
   -0.2396   69.3932   68.1339 H   0  0  0  0  0  0  0  0  0  0  0  0
    1.2802   69.3091   67.1815 H   0  0  0  0  0  0  0  0  0  0  0  0
    0.3688   67.3127   66.1378 H   0  0  0  0  0  0  0  0  0  0  0  0
   -2.3648   68.0073   66.9770 H   0  0  0  0  0  0  0  0  0  0  0  0
   -1.7081   66.4590   66.2956 H   0  0  0  0  0  0  0  0  0  0  0  0
   -1.6912   67.4930   69.1107 H   0  0  0  0  0  0  0  0  0  0  0  0
   -1.9110   65.8115   68.4562 H   0  0  0  0  0  0  0  0  0  0  0  0
   -1.5767   68.6439   64.9016 H   0  0  0  0  0  0  0  0  0  0  0  0
   -0.6037   69.9669   65.6924 H   0  0  0  0  0  0  0  0  0  0  0  0
   -1.0004   69.1866   62.6214 H   0  0  0  0  0  0  0  0  0  0  0  0
    0.7163   69.1071   60.8193 H   0  0  0  0  0  0  0  0  0  0  0  0
    3.1120   68.7275   61.3876 H   0  0  0  0  0  0  0  0  0  0  0  0
    3.7953   68.4139   63.7645 H   0  0  0  0  0  0  0  0  0  0  0  0
    2.0876   68.4945   65.5773 H   0  0  0  0  0  0  0  0  0  0  0  0
  2  1  2  0
  3  1  1  0
  5  4  2  0
  6  5  1  0
  7  6  1  0
  8  7  1  0
  8  1  1  0
  9  8  2  0
 10  9  1  0
 11 10  2  0
 12 10  1  0
 12  6  2  0
 13 12  1  0
 14  4  1  0
 14 13  2  0
 16 15  1  0
 16  4  1  0
 17 14  1  0
 18 17  1  0
 19  3  1  0
 20 19  1  0
 21 20  1  0
 22 21  1  0
 23 22  1  0
 24 23  1  0
 25 24  1  0
 26 25  1  0
 26 21  1  0
 27 24  1  0
 28 27  1  0
 29 28  2  0
 30 29  1  0
 31 30  2  0
 32 31  1  0
 33 28  1  0
 33 32  2  0
  3 34  1  0
  5 35  1  0
  9 36  1  0
 13 37  1  0
 15 38  1  0
 15 39  1  0
 15 40  1  0
 18 41  1  0
 18 42  1  0
 18 43  1  0
 19 44  1  0
 19 45  1  0
 20 46  1  0
 20 47  1  0
 21 48  1  0
 22 49  1  0
 22 50  1  0
 23 51  1  0
 23 52  1  0
 24 53  1  0
 25 54  1  0
 25 55  1  0
 26 56  1  0
 26 57  1  0
 27 58  1  0
 27 59  1  0
 29 60  1  0
 30 61  1  0
 31 62  1  0
 32 63  1  0
 33 64  1  0
M  CHG  1  24   1
M  END
>  <score>  (4) 
-10.446

$$$$
=
     RDKit          3D

 64 67  0  0  0  0  0  0  0  0999 V2000
    1.6340   62.7640   71.1110 C   0  0  0  0  0  0  0  0  0  0  0  0
    2.5930   62.4070   70.4390 O   0  0  0  0  0  0  0  0  0  0  0  0
    1.2060   64.0770   71.1980 N   0  0  0  0  0  0  0  0  0  0  0  0
    0.7280   57.4250   73.8890 C   0  0  0  0  0  0  0  0  0  0  0  0
    1.3750   58.4100   73.1340 C   0  0  0  0  0  0  0  0  0  0  0  0
    0.7490   59.6360   72.9080 C   0  0  0  0  0  0  0  0  0  0  0  0
    1.4370   60.5600   72.1600 O   0  0  0  0  0  0  0  0  0  0  0  0
    0.8280   61.7750   71.8920 C   0  0  0  0  0  0  0  0  0  0  0  0
   -0.3750   62.1360   72.3580 C   0  0  0  0  0  0  0  0  0  0  0  0
   -1.1380   61.1870   73.1810 C   0  0  0  0  0  0  0  0  0  0  0  0
   -2.2350   61.5040   73.6210 O   0  0  0  0  0  0  0  0  0  0  0  0
   -0.5150   59.8800   73.4340 C   0  0  0  0  0  0  0  0  0  0  0  0
   -1.1750   58.9090   74.1900 C   0  0  0  0  0  0  0  0  0  0  0  0
   -0.5580   57.6760   74.4200 C   0  0  0  0  0  0  0  0  0  0  0  0
    2.2590   56.1050   75.1710 C   0  0  0  0  0  0  0  0  0  0  0  0
    1.2590   56.1900   74.1660 O   0  0  0  0  0  0  0  0  0  0  0  0
   -1.1170   56.6550   75.1480 O   0  0  0  0  0  0  0  0  0  0  0  0
   -1.9910   56.9980   76.2140 C   0  0  0  0  0  0  0  0  0  0  0  0
    1.7210   65.0790   70.2860 C   0  0  0  0  0  0  0  0  0  0  0  0
    0.8900   66.3640   70.1670 C   0  0  0  0  0  0  0  0  0  0  0  0
    0.5600   66.8890   68.7550 C   0  0  0  0  0  0  0  0  0  0  0  0
    1.2210   68.2460   68.4490 C   0  0  0  0  0  0  0  0  0  0  0  0
    0.5170   69.0410   67.3510 C   0  0  0  0  0  0  0  0  0  0  0  0
   -0.0860   68.0890   66.3550 N   0  0  0  0  0  4  0  0  0  0  0  0
   -1.1910   67.2510   66.9510 C   0  0  0  0  0  0  0  0  0  0  0  0
   -0.9320   66.9300   68.4240 C   0  0  0  0  0  0  0  0  0  0  0  0
   -0.5310   68.7620   65.0740 C   0  0  0  0  0  0  0  0  0  0  0  0
    0.5230   68.7390   64.0010 C   0  0  0  0  0  0  0  0  0  0  0  0
    0.2160   69.1380   62.6900 C   0  0  0  0  0  0  0  0  0  0  0  0
    1.2030   69.1400   61.7040 C   0  0  0  0  0  0  0  0  0  0  0  0
    2.5020   68.7430   62.0130 C   0  0  0  0  0  0  0  0  0  0  0  0
    2.8170   68.3380   63.3080 C   0  0  0  0  0  0  0  0  0  0  0  0
    1.8340   68.3340   64.2990 C   0  0  0  0  0  0  0  0  0  0  0  0
    0.5170   64.3441   71.9155 H   0  0  0  0  0  0  0  0  0  0  0  0
    2.3756   58.2177   72.7195 H   0  0  0  0  0  0  0  0  0  0  0  0
   -0.7864   63.1298   72.1277 H   0  0  0  0  0  0  0  0  0  0  0  0
   -2.1743   59.1132   74.6020 H   0  0  0  0  0  0  0  0  0  0  0  0
    1.7860   56.1452   76.1633 H   0  0  0  0  0  0  0  0  0  0  0  0
    2.8067   55.1571   75.0640 H   0  0  0  0  0  0  0  0  0  0  0  0
    2.9588   56.9469   75.0640 H   0  0  0  0  0  0  0  0  0  0  0  0
   -1.4921   56.8022   77.1746 H   0  0  0  0  0  0  0  0  0  0  0  0
   -2.2507   58.0648   76.1464 H   0  0  0  0  0  0  0  0  0  0  0  0
   -2.9069   56.3926   76.1464 H   0  0  0  0  0  0  0  0  0  0  0  0
    2.7288   65.3591   70.6264 H   0  0  0  0  0  0  0  0  0  0  0  0
    1.6985   64.6152   69.2888 H   0  0  0  0  0  0  0  0  0  0  0  0
   -0.0663   66.1829   70.6796 H   0  0  0  0  0  0  0  0  0  0  0  0
    1.5293   67.1442   70.6059 H   0  0  0  0  0  0  0  0  0  0  0  0
    1.0028   66.1338   68.0890 H   0  0  0  0  0  0  0  0  0  0  0  0
    1.2184   68.8484   69.3694 H   0  0  0  0  0  0  0  0  0  0  0  0
    2.2381   68.0328   68.0883 H   0  0  0  0  0  0  0  0  0  0  0  0
   -0.2772   69.6583   67.7963 H   0  0  0  0  0  0  0  0  0  0  0  0
    1.2445   69.6919   66.8440 H   0  0  0  0  0  0  0  0  0  0  0  0
    0.6791   67.4496   66.0968 H   0  0  0  0  0  0  0  0  0  0  0  0
   -2.1393   67.8022   66.8685 H   0  0  0  0  0  0  0  0  0  0  0  0
   -1.2350   66.3013   66.3977 H   0  0  0  0  0  0  0  0  0  0  0  0
   -1.4108   67.7023   69.0439 H   0  0  0  0  0  0  0  0  0  0  0  0
   -1.3500   65.9336   68.6299 H   0  0  0  0  0  0  0  0  0  0  0  0
   -1.4253   68.2435   64.6980 H   0  0  0  0  0  0  0  0  0  0  0  0
   -0.7366   69.8164   65.3106 H   0  0  0  0  0  0  0  0  0  0  0  0
   -0.8084   69.4507   62.4391 H   0  0  0  0  0  0  0  0  0  0  0  0
    0.9548   69.4559   60.6800 H   0  0  0  0  0  0  0  0  0  0  0  0
    3.2790   68.7493   61.2344 H   0  0  0  0  0  0  0  0  0  0  0  0
    3.8421   68.0208   63.5501 H   0  0  0  0  0  0  0  0  0  0  0  0
    2.0879   68.0116   65.3196 H   0  0  0  0  0  0  0  0  0  0  0  0
  2  1  2  0
  3  1  1  0
  5  4  2  0
  6  5  1  0
  7  6  1  0
  8  7  1  0
  8  1  1  0
  9  8  2  0
 10  9  1  0
 11 10  2  0
 12 10  1  0
 12  6  2  0
 13 12  1  0
 14  4  1  0
 14 13  2  0
 16 15  1  0
 16  4  1  0
 17 14  1  0
 18 17  1  0
 19  3  1  0
 20 19  1  0
 21 20  1  0
 22 21  1  0
 23 22  1  0
 24 23  1  0
 25 24  1  0
 26 25  1  0
 26 21  1  0
 27 24  1  0
 28 27  1  0
 29 28  2  0
 30 29  1  0
 31 30  2  0
 32 31  1  0
 33 28  1  0
 33 32  2  0
  3 34  1  0
  5 35  1  0
  9 36  1  0
 13 37  1  0
 15 38  1  0
 15 39  1  0
 15 40  1  0
 18 41  1  0
 18 42  1  0
 18 43  1  0
 19 44  1  0
 19 45  1  0
 20 46  1  0
 20 47  1  0
 21 48  1  0
 22 49  1  0
 22 50  1  0
 23 51  1  0
 23 52  1  0
 24 53  1  0
 25 54  1  0
 25 55  1  0
 26 56  1  0
 26 57  1  0
 27 58  1  0
 27 59  1  0
 29 60  1  0
 30 61  1  0
 31 62  1  0
 32 63  1  0
 33 64  1  0
M  CHG  1  24   1
M  END
>  <score>  (5) 
-10.272

$$$$
=
     RDKit          3D

 64 67  0  0  0  0  0  0  0  0999 V2000
    2.0440   62.7870   71.1120 C   0  0  0  0  0  0  0  0  0  0  0  0
    2.9150   62.6500   70.2620 O   0  0  0  0  0  0  0  0  0  0  0  0
    1.4640   64.0030   71.4240 N   0  0  0  0  0  0  0  0  0  0  0  0
   -2.1660   59.7840   74.3220 C   0  0  0  0  0  0  0  0  0  0  0  0
   -1.5640   60.8340   73.6190 C   0  0  0  0  0  0  0  0  0  0  0  0
   -0.2890   60.6690   73.0780 C   0  0  0  0  0  0  0  0  0  0  0  0
    0.2460   61.7370   72.4000 O   0  0  0  0  0  0  0  0  0  0  0  0
    1.5230   61.6130   71.8790 C   0  0  0  0  0  0  0  0  0  0  0  0
    2.2610   60.4970   71.9470 C   0  0  0  0  0  0  0  0  0  0  0  0
    1.7210   59.3230   72.6440 C   0  0  0  0  0  0  0  0  0  0  0  0
    2.3790   58.2930   72.7080 O   0  0  0  0  0  0  0  0  0  0  0  0
    0.3830   59.4610   73.2360 C   0  0  0  0  0  0  0  0  0  0  0  0
   -0.2030   58.4020   73.9330 C   0  0  0  0  0  0  0  0  0  0  0  0
   -1.4790   58.5590   74.4820 C   0  0  0  0  0  0  0  0  0  0  0  0
   -4.2890   60.8810   74.4580 C   0  0  0  0  0  0  0  0  0  0  0  0
   -3.4140   59.8490   74.8900 O   0  0  0  0  0  0  0  0  0  0  0  0
   -2.1440   57.5850   75.1830 O   0  0  0  0  0  0  0  0  0  0  0  0
   -1.4060   56.8220   76.1270 C   0  0  0  0  0  0  0  0  0  0  0  0
    1.6760   65.1580   70.5740 C   0  0  0  0  0  0  0  0  0  0  0  0
    0.4230   65.9730   70.2290 C   0  0  0  0  0  0  0  0  0  0  0  0
    0.3370   66.6200   68.8320 C   0  0  0  0  0  0  0  0  0  0  0  0
    1.1670   67.9120   68.7160 C   0  0  0  0  0  0  0  0  0  0  0  0
    0.6990   68.8470   67.6020 C   0  0  0  0  0  0  0  0  0  0  0  0
    0.1390   68.0320   66.4690 N   0  0  0  0  0  4  0  0  0  0  0  0
   -1.1150   67.2870   66.8570 C   0  0  0  0  0  0  0  0  0  0  0  0
   -1.0860   66.8460   68.3220 C   0  0  0  0  0  0  0  0  0  0  0  0
   -0.0630   68.8310   65.1980 C   0  0  0  0  0  0  0  0  0  0  0  0
    1.1170   68.7630   64.2680 C   0  0  0  0  0  0  0  0  0  0  0  0
    0.9310   68.7570   62.8770 C   0  0  0  0  0  0  0  0  0  0  0  0
    2.0300   68.7210   62.0180 C   0  0  0  0  0  0  0  0  0  0  0  0
    3.3220   68.6880   62.5360 C   0  0  0  0  0  0  0  0  0  0  0  0
    3.5200   68.6860   63.9150 C   0  0  0  0  0  0  0  0  0  0  0  0
    2.4250   68.7220   64.7790 C   0  0  0  0  0  0  0  0  0  0  0  0
    0.8773   64.0886   72.2662 H   0  0  0  0  0  0  0  0  0  0  0  0
   -2.0960   61.7886   73.4933 H   0  0  0  0  0  0  0  0  0  0  0  0
    3.2592   60.4607   71.4863 H   0  0  0  0  0  0  0  0  0  0  0  0
    0.3362   57.4503   74.0492 H   0  0  0  0  0  0  0  0  0  0  0  0
   -4.7189   61.3880   75.3344 H   0  0  0  0  0  0  0  0  0  0  0  0
   -3.7278   61.6080   73.8525 H   0  0  0  0  0  0  0  0  0  0  0  0
   -5.0979   60.4463   73.8525 H   0  0  0  0  0  0  0  0  0  0  0  0
   -1.6947   57.1204   77.1456 H   0  0  0  0  0  0  0  0  0  0  0  0
   -1.6215   55.7529   75.9832 H   0  0  0  0  0  0  0  0  0  0  0  0
   -0.3304   57.0018   75.9832 H   0  0  0  0  0  0  0  0  0  0  0  0
    2.3838   65.8274   71.0848 H   0  0  0  0  0  0  0  0  0  0  0  0
    2.0462   64.7606   69.6174 H   0  0  0  0  0  0  0  0  0  0  0  0
   -0.4417   65.3008   70.3310 H   0  0  0  0  0  0  0  0  0  0  0  0
    0.4526   66.8258   70.9232 H   0  0  0  0  0  0  0  0  0  0  0  0
    0.7850   65.8644   68.1699 H   0  0  0  0  0  0  0  0  0  0  0  0
    1.1032   68.4523   69.6720 H   0  0  0  0  0  0  0  0  0  0  0  0
    2.1962   67.6110   68.4707 H   0  0  0  0  0  0  0  0  0  0  0  0
   -0.0799   69.5197   67.9903 H   0  0  0  0  0  0  0  0  0  0  0  0
    1.5499   69.4432   67.2406 H   0  0  0  0  0  0  0  0  0  0  0  0
    0.8618   67.3287   66.2596 H   0  0  0  0  0  0  0  0  0  0  0  0
   -1.9825   67.9451   66.7007 H   0  0  0  0  0  0  0  0  0  0  0  0
   -1.1836   66.3853   66.2307 H   0  0  0  0  0  0  0  0  0  0  0  0
   -1.5620   67.6252   68.9354 H   0  0  0  0  0  0  0  0  0  0  0  0
   -1.6257   65.8904   68.3964 H   0  0  0  0  0  0  0  0  0  0  0  0
   -0.9461   68.4377   64.6732 H   0  0  0  0  0  0  0  0  0  0  0  0
   -0.1933   69.8840   65.4882 H   0  0  0  0  0  0  0  0  0  0  0  0
   -0.0872   68.7808   62.4614 H   0  0  0  0  0  0  0  0  0  0  0  0
    1.8753   68.7187   60.9289 H   0  0  0  0  0  0  0  0  0  0  0  0
    4.1865   68.6635   61.8563 H   0  0  0  0  0  0  0  0  0  0  0  0
    4.5410   68.6560   64.3232 H   0  0  0  0  0  0  0  0  0  0  0  0
    2.5869   68.7183   65.8670 H   0  0  0  0  0  0  0  0  0  0  0  0
  2  1  2  0
  3  1  1  0
  5  4  2  0
  6  5  1  0
  7  6  1  0
  8  7  1  0
  8  1  1  0
  9  8  2  0
 10  9  1  0
 11 10  2  0
 12 10  1  0
 12  6  2  0
 13 12  1  0
 14  4  1  0
 14 13  2  0
 16 15  1  0
 16  4  1  0
 17 14  1  0
 18 17  1  0
 19  3  1  0
 20 19  1  0
 21 20  1  0
 22 21  1  0
 23 22  1  0
 24 23  1  0
 25 24  1  0
 26 25  1  0
 26 21  1  0
 27 24  1  0
 28 27  1  0
 29 28  2  0
 30 29  1  0
 31 30  2  0
 32 31  1  0
 33 28  1  0
 33 32  2  0
  3 34  1  0
  5 35  1  0
  9 36  1  0
 13 37  1  0
 15 38  1  0
 15 39  1  0
 15 40  1  0
 18 41  1  0
 18 42  1  0
 18 43  1  0
 19 44  1  0
 19 45  1  0
 20 46  1  0
 20 47  1  0
 21 48  1  0
 22 49  1  0
 22 50  1  0
 23 51  1  0
 23 52  1  0
 24 53  1  0
 25 54  1  0
 25 55  1  0
 26 56  1  0
 26 57  1  0
 27 58  1  0
 27 59  1  0
 29 60  1  0
 30 61  1  0
 31 62  1  0
 32 63  1  0
 33 64  1  0
M  CHG  1  24   1
M  END
>  <score>  (6) 
-9.975

$$$$
=
     RDKit          3D

 64 67  0  0  0  0  0  0  0  0999 V2000
    0.1210   64.7970   71.4170 C   0  0  0  0  0  0  0  0  0  0  0  0
   -0.3230   65.6140   72.2140 O   0  0  0  0  0  0  0  0  0  0  0  0
    0.3770   65.0840   70.0890 N   0  0  0  0  0  0  0  0  0  0  0  0
   -1.1370   59.4670   74.0720 C   0  0  0  0  0  0  0  0  0  0  0  0
   -1.3130   60.7920   73.6570 C   0  0  0  0  0  0  0  0  0  0  0  0
   -0.3140   61.4300   72.9230 C   0  0  0  0  0  0  0  0  0  0  0  0
   -0.5480   62.7290   72.5460 O   0  0  0  0  0  0  0  0  0  0  0  0
    0.4400   63.3990   71.8430 C   0  0  0  0  0  0  0  0  0  0  0  0
    1.5980   62.8470   71.4570 C   0  0  0  0  0  0  0  0  0  0  0  0
    1.8820   61.4520   71.8190 C   0  0  0  0  0  0  0  0  0  0  0  0
    2.9320   60.9310   71.4670 O   0  0  0  0  0  0  0  0  0  0  0  0
    0.8560   60.7490   72.6020 C   0  0  0  0  0  0  0  0  0  0  0  0
    1.0480   59.4260   73.0070 C   0  0  0  0  0  0  0  0  0  0  0  0
    0.0540   58.7790   73.7460 C   0  0  0  0  0  0  0  0  0  0  0  0
   -2.1470   59.0040   76.1930 C   0  0  0  0  0  0  0  0  0  0  0  0
   -2.0600   58.7550   74.7970 O   0  0  0  0  0  0  0  0  0  0  0  0
    0.1410   57.4840   74.1910 O   0  0  0  0  0  0  0  0  0  0  0  0
   -0.1610   56.4420   73.2740 C   0  0  0  0  0  0  0  0  0  0  0  0
    0.3740   66.4560   69.6200 C   0  0  0  0  0  0  0  0  0  0  0  0
   -0.6980   66.8040   68.5780 C   0  0  0  0  0  0  0  0  0  0  0  0
   -0.2340   67.2260   67.1700 C   0  0  0  0  0  0  0  0  0  0  0  0
    1.2990   67.2320   67.0190 C   0  0  0  0  0  0  0  0  0  0  0  0
    1.8040   68.1320   65.8930 C   0  0  0  0  0  0  0  0  0  0  0  0
    0.7910   68.1570   64.7820 N   0  0  0  0  0  4  0  0  0  0  0  0
   -0.5080   68.8040   65.1980 C   0  0  0  0  0  0  0  0  0  0  0  0
   -0.8290   68.5430   66.6700 C   0  0  0  0  0  0  0  0  0  0  0  0
    1.3220   68.7580   63.4980 C   0  0  0  0  0  0  0  0  0  0  0  0
    2.8150   68.6330   63.3640 C   0  0  0  0  0  0  0  0  0  0  0  0
    3.3770   67.8070   62.3770 C   0  0  0  0  0  0  0  0  0  0  0  0
    4.7620   67.7150   62.2390 C   0  0  0  0  0  0  0  0  0  0  0  0
    5.6000   68.4390   63.0830 C   0  0  0  0  0  0  0  0  0  0  0  0
    5.0550   69.2560   64.0720 C   0  0  0  0  0  0  0  0  0  0  0  0
    3.6690   69.3540   64.2140 C   0  0  0  0  0  0  0  0  0  0  0  0
    0.5712   64.3180   69.4283 H   0  0  0  0  0  0  0  0  0  0  0  0
   -2.2388   61.3296   73.9097 H   0  0  0  0  0  0  0  0  0  0  0  0
    2.3271   63.4311   70.8762 H   0  0  0  0  0  0  0  0  0  0  0  0
    1.9762   58.8966   72.7458 H   0  0  0  0  0  0  0  0  0  0  0  0
   -1.8333   58.1062   76.7458 H   0  0  0  0  0  0  0  0  0  0  0  0
   -1.4896   59.8455   76.4570 H   0  0  0  0  0  0  0  0  0  0  0  0
   -3.1854   59.2530   76.4570 H   0  0  0  0  0  0  0  0  0  0  0  0
   -0.4253   55.5300   73.8294 H   0  0  0  0  0  0  0  0  0  0  0  0
   -1.0084   56.7446   72.6413 H   0  0  0  0  0  0  0  0  0  0  0  0
    0.7169   56.2445   72.6413 H   0  0  0  0  0  0  0  0  0  0  0  0
    0.2225   67.1101   70.4913 H   0  0  0  0  0  0  0  0  0  0  0  0
    1.3400   66.6007   69.1142 H   0  0  0  0  0  0  0  0  0  0  0  0
   -1.3373   65.9168   68.4587 H   0  0  0  0  0  0  0  0  0  0  0  0
   -1.1914   67.6999   68.9827 H   0  0  0  0  0  0  0  0  0  0  0  0
   -0.6405   66.4380   66.5190 H   0  0  0  0  0  0  0  0  0  0  0  0
    1.7393   67.5800   67.9651 H   0  0  0  0  0  0  0  0  0  0  0  0
    1.6002   66.2044   66.7673 H   0  0  0  0  0  0  0  0  0  0  0  0
    1.9529   69.1520   66.2771 H   0  0  0  0  0  0  0  0  0  0  0  0
    2.7591   67.7422   65.5110 H   0  0  0  0  0  0  0  0  0  0  0  0
    0.5904   67.1674   64.5786 H   0  0  0  0  0  0  0  0  0  0  0  0
   -0.4320   69.8896   65.0376 H   0  0  0  0  0  0  0  0  0  0  0  0
   -1.3154   68.3691   64.5906 H   0  0  0  0  0  0  0  0  0  0  0  0
   -0.4198   69.3672   67.2727 H   0  0  0  0  0  0  0  0  0  0  0  0
   -1.9225   68.4768   66.7690 H   0  0  0  0  0  0  0  0  0  0  0  0
    0.8495   68.2433   62.6484 H   0  0  0  0  0  0  0  0  0  0  0  0
    1.0817   69.8313   63.5131 H   0  0  0  0  0  0  0  0  0  0  0  0
    2.7213   67.2293   61.7090 H   0  0  0  0  0  0  0  0  0  0  0  0
    5.1936   67.0683   61.4608 H   0  0  0  0  0  0  0  0  0  0  0  0
    6.6917   68.3662   62.9693 H   0  0  0  0  0  0  0  0  0  0  0  0
    5.7173   69.8243   64.7416 H   0  0  0  0  0  0  0  0  0  0  0  0
    3.2439   69.9999   64.9964 H   0  0  0  0  0  0  0  0  0  0  0  0
  2  1  2  0
  3  1  1  0
  5  4  2  0
  6  5  1  0
  7  6  1  0
  8  7  1  0
  8  1  1  0
  9  8  2  0
 10  9  1  0
 11 10  2  0
 12 10  1  0
 12  6  2  0
 13 12  1  0
 14  4  1  0
 14 13  2  0
 16 15  1  0
 16  4  1  0
 17 14  1  0
 18 17  1  0
 19  3  1  0
 20 19  1  0
 21 20  1  0
 22 21  1  0
 23 22  1  0
 24 23  1  0
 25 24  1  0
 26 25  1  0
 26 21  1  0
 27 24  1  0
 28 27  1  0
 29 28  2  0
 30 29  1  0
 31 30  2  0
 32 31  1  0
 33 28  1  0
 33 32  2  0
  3 34  1  0
  5 35  1  0
  9 36  1  0
 13 37  1  0
 15 38  1  0
 15 39  1  0
 15 40  1  0
 18 41  1  0
 18 42  1  0
 18 43  1  0
 19 44  1  0
 19 45  1  0
 20 46  1  0
 20 47  1  0
 21 48  1  0
 22 49  1  0
 22 50  1  0
 23 51  1  0
 23 52  1  0
 24 53  1  0
 25 54  1  0
 25 55  1  0
 26 56  1  0
 26 57  1  0
 27 58  1  0
 27 59  1  0
 29 60  1  0
 30 61  1  0
 31 62  1  0
 32 63  1  0
 33 64  1  0
M  CHG  1  24   1
M  END
>  <score>  (7) 
-9.864

$$$$
=
     RDKit          3D

 64 67  0  0  0  0  0  0  0  0999 V2000
    3.9950   63.8590   65.3510 C   0  0  0  0  0  0  0  0  0  0  0  0
    4.8140   63.0920   64.8620 O   0  0  0  0  0  0  0  0  0  0  0  0
    3.4710   63.7110   66.6230 N   0  0  0  0  0  0  0  0  0  0  0  0
    0.1820   68.4850   64.3010 C   0  0  0  0  0  0  0  0  0  0  0  0
    0.7090   67.3420   64.9120 C   0  0  0  0  0  0  0  0  0  0  0  0
    1.8880   66.7750   64.4270 C   0  0  0  0  0  0  0  0  0  0  0  0
    2.3530   65.6540   65.0700 O   0  0  0  0  0  0  0  0  0  0  0  0
    3.5040   65.0510   64.5910 C   0  0  0  0  0  0  0  0  0  0  0  0
    4.2320   65.5170   63.5680 C   0  0  0  0  0  0  0  0  0  0  0  0
    3.7840   66.7260   62.8630 C   0  0  0  0  0  0  0  0  0  0  0  0
    4.4410   67.1690   61.9310 O   0  0  0  0  0  0  0  0  0  0  0  0
    2.5400   67.3470   63.3390 C   0  0  0  0  0  0  0  0  0  0  0  0
    2.0280   68.4890   62.7190 C   0  0  0  0  0  0  0  0  0  0  0  0
    0.8460   69.0630   63.1950 C   0  0  0  0  0  0  0  0  0  0  0  0
   -1.5160   68.7620   65.9660 C   0  0  0  0  0  0  0  0  0  0  0  0
   -0.9700   69.1150   64.7030 O   0  0  0  0  0  0  0  0  0  0  0  0
    0.2600   70.1820   62.6600 O   0  0  0  0  0  0  0  0  0  0  0  0
   -0.1820   70.1230   61.3110 C   0  0  0  0  0  0  0  0  0  0  0  0
    4.0610   62.7710   67.5550 C   0  0  0  0  0  0  0  0  0  0  0  0
    3.8940   63.1100   69.0420 C   0  0  0  0  0  0  0  0  0  0  0  0
    3.6170   61.9560   70.0260 C   0  0  0  0  0  0  0  0  0  0  0  0
    4.3090   62.1490   71.3890 C   0  0  0  0  0  0  0  0  0  0  0  0
    4.5250   60.8490   72.1600 C   0  0  0  0  0  0  0  0  0  0  0  0
    3.4100   59.8900   71.8450 N   0  0  0  0  0  4  0  0  0  0  0  0
    3.4140   59.4520   70.4010 C   0  0  0  0  0  0  0  0  0  0  0  0
    3.9040   60.5610   69.4700 C   0  0  0  0  0  0  0  0  0  0  0  0
    3.3550   58.7030   72.7840 C   0  0  0  0  0  0  0  0  0  0  0  0
    1.9510   58.3240   73.1710 C   0  0  0  0  0  0  0  0  0  0  0  0
    1.5620   56.9760   73.2170 C   0  0  0  0  0  0  0  0  0  0  0  0
    0.2670   56.6280   73.6010 C   0  0  0  0  0  0  0  0  0  0  0  0
   -0.6520   57.6180   73.9400 C   0  0  0  0  0  0  0  0  0  0  0  0
   -0.2810   58.9600   73.8910 C   0  0  0  0  0  0  0  0  0  0  0  0
    1.0140   59.3140   73.5080 C   0  0  0  0  0  0  0  0  0  0  0  0
    2.6564   64.2725   66.9093 H   0  0  0  0  0  0  0  0  0  0  0  0
    0.1946   66.8911   65.7734 H   0  0  0  0  0  0  0  0  0  0  0  0
    5.1534   65.0014   63.2595 H   0  0  0  0  0  0  0  0  0  0  0  0
    2.5523   68.9343   61.8606 H   0  0  0  0  0  0  0  0  0  0  0  0
   -0.8826   69.1715   66.7667 H   0  0  0  0  0  0  0  0  0  0  0  0
   -2.5317   69.1748   66.0547 H   0  0  0  0  0  0  0  0  0  0  0  0
   -1.5565   67.6663   66.0547 H   0  0  0  0  0  0  0  0  0  0  0  0
   -1.2721   69.9775   61.2884 H   0  0  0  0  0  0  0  0  0  0  0  0
    0.0731   71.0632   60.8001 H   0  0  0  0  0  0  0  0  0  0  0  0
    0.3108   69.2827   60.8001 H   0  0  0  0  0  0  0  0  0  0  0  0
    3.6004   61.7876   67.3794 H   0  0  0  0  0  0  0  0  0  0  0  0
    5.1436   62.7993   67.3622 H   0  0  0  0  0  0  0  0  0  0  0  0
    4.8210   63.6029   69.3702 H   0  0  0  0  0  0  0  0  0  0  0  0
    2.9830   63.7253   69.0804 H   0  0  0  0  0  0  0  0  0  0  0  0
    2.5294   62.0074   70.1822 H   0  0  0  0  0  0  0  0  0  0  0  0
    5.2894   62.6172   71.2170 H   0  0  0  0  0  0  0  0  0  0  0  0
    3.6439   62.7770   71.9999 H   0  0  0  0  0  0  0  0  0  0  0  0
    5.4866   60.4032   71.8656 H   0  0  0  0  0  0  0  0  0  0  0  0
    4.5345   61.0594   73.2396 H   0  0  0  0  0  0  0  0  0  0  0  0
    2.5434   60.4244   72.0011 H   0  0  0  0  0  0  0  0  0  0  0  0
    4.0769   58.5805   70.2956 H   0  0  0  0  0  0  0  0  0  0  0  0
    2.3810   59.2012   70.1181 H   0  0  0  0  0  0  0  0  0  0  0  0
    4.9898   60.4522   69.3314 H   0  0  0  0  0  0  0  0  0  0  0  0
    3.3647   60.4619   68.5164 H   0  0  0  0  0  0  0  0  0  0  0  0
    3.8266   57.8417   72.2882 H   0  0  0  0  0  0  0  0  0  0  0  0
    3.8848   58.9873   73.7051 H   0  0  0  0  0  0  0  0  0  0  0  0
    2.2827   56.1895   72.9486 H   0  0  0  0  0  0  0  0  0  0  0  0
   -0.0291   55.5692   73.6362 H   0  0  0  0  0  0  0  0  0  0  0  0
   -1.6712   57.3402   74.2466 H   0  0  0  0  0  0  0  0  0  0  0  0
   -1.0091   59.7414   74.1543 H   0  0  0  0  0  0  0  0  0  0  0  0
    1.3021   60.3749   73.4700 H   0  0  0  0  0  0  0  0  0  0  0  0
  2  1  2  0
  3  1  1  0
  5  4  2  0
  6  5  1  0
  7  6  1  0
  8  7  1  0
  8  1  1  0
  9  8  2  0
 10  9  1  0
 11 10  2  0
 12 10  1  0
 12  6  2  0
 13 12  1  0
 14  4  1  0
 14 13  2  0
 16 15  1  0
 16  4  1  0
 17 14  1  0
 18 17  1  0
 19  3  1  0
 20 19  1  0
 21 20  1  0
 22 21  1  0
 23 22  1  0
 24 23  1  0
 25 24  1  0
 26 25  1  0
 26 21  1  0
 27 24  1  0
 28 27  1  0
 29 28  2  0
 30 29  1  0
 31 30  2  0
 32 31  1  0
 33 28  1  0
 33 32  2  0
  3 34  1  0
  5 35  1  0
  9 36  1  0
 13 37  1  0
 15 38  1  0
 15 39  1  0
 15 40  1  0
 18 41  1  0
 18 42  1  0
 18 43  1  0
 19 44  1  0
 19 45  1  0
 20 46  1  0
 20 47  1  0
 21 48  1  0
 22 49  1  0
 22 50  1  0
 23 51  1  0
 23 52  1  0
 24 53  1  0
 25 54  1  0
 25 55  1  0
 26 56  1  0
 26 57  1  0
 27 58  1  0
 27 59  1  0
 29 60  1  0
 30 61  1  0
 31 62  1  0
 32 63  1  0
 33 64  1  0
M  CHG  1  24   1
M  END
>  <score>  (8) 
-9.574

$$$$
=
     RDKit          3D

 64 67  0  0  0  0  0  0  0  0999 V2000
    1.4900   61.6550   71.6990 C   0  0  0  0  0  0  0  0  0  0  0  0
    2.6050   61.7340   71.2000 O   0  0  0  0  0  0  0  0  0  0  0  0
    0.5170   62.6280   71.5570 N   0  0  0  0  0  0  0  0  0  0  0  0
   -2.3170   58.4540   75.2060 C   0  0  0  0  0  0  0  0  0  0  0  0
   -1.8240   59.5300   74.4590 C   0  0  0  0  0  0  0  0  0  0  0  0
   -0.5820   59.4300   73.8310 C   0  0  0  0  0  0  0  0  0  0  0  0
   -0.1550   60.5200   73.1140 O   0  0  0  0  0  0  0  0  0  0  0  0
    1.0880   60.4610   72.5050 C   0  0  0  0  0  0  0  0  0  0  0  0
    1.8890   59.3870   72.5250 C   0  0  0  0  0  0  0  0  0  0  0  0
    1.4630   58.1910   73.2630 C   0  0  0  0  0  0  0  0  0  0  0  0
    2.1790   57.1990   73.2850 O   0  0  0  0  0  0  0  0  0  0  0  0
    0.1640   58.2610   73.9460 C   0  0  0  0  0  0  0  0  0  0  0  0
   -0.3140   57.1780   74.6870 C   0  0  0  0  0  0  0  0  0  0  0  0
   -1.5560   57.2690   75.3220 C   0  0  0  0  0  0  0  0  0  0  0  0
   -4.7010   58.6420   75.0850 C   0  0  0  0  0  0  0  0  0  0  0  0
   -3.5250   58.4560   75.8590 O   0  0  0  0  0  0  0  0  0  0  0  0
   -2.1170   56.2660   76.0720 O   0  0  0  0  0  0  0  0  0  0  0  0
   -2.7510   55.1960   75.3850 C   0  0  0  0  0  0  0  0  0  0  0  0
    0.6790   63.6910   70.5850 C   0  0  0  0  0  0  0  0  0  0  0  0
   -0.2560   64.8970   70.7520 C   0  0  0  0  0  0  0  0  0  0  0  0
    0.1160   66.2110   70.0350 C   0  0  0  0  0  0  0  0  0  0  0  0
   -0.7370   66.4710   68.7790 C   0  0  0  0  0  0  0  0  0  0  0  0
   -0.0770   67.4090   67.7700 C   0  0  0  0  0  0  0  0  0  0  0  0
    0.7760   68.4080   68.5010 N   0  0  0  0  0  4  0  0  0  0  0  0
    1.9450   67.7660   69.2060 C   0  0  0  0  0  0  0  0  0  0  0  0
    1.6030   66.3650   69.7180 C   0  0  0  0  0  0  0  0  0  0  0  0
    1.2210   69.5670   67.6340 C   0  0  0  0  0  0  0  0  0  0  0  0
    2.7000   69.8290   67.7170 C   0  0  0  0  0  0  0  0  0  0  0  0
    3.5480   69.4840   66.6530 C   0  0  0  0  0  0  0  0  0  0  0  0
    4.9150   69.7530   66.7230 C   0  0  0  0  0  0  0  0  0  0  0  0
    5.4510   70.3640   67.8550 C   0  0  0  0  0  0  0  0  0  0  0  0
    4.6210   70.7050   68.9210 C   0  0  0  0  0  0  0  0  0  0  0  0
    3.2520   70.4390   68.8560 C   0  0  0  0  0  0  0  0  0  0  0  0
   -0.3277   62.5969   72.1455 H   0  0  0  0  0  0  0  0  0  0  0  0
   -2.4149   60.4533   74.3671 H   0  0  0  0  0  0  0  0  0  0  0  0
    2.8531   59.4010   71.9955 H   0  0  0  0  0  0  0  0  0  0  0  0
    0.2836   56.2583   74.7705 H   0  0  0  0  0  0  0  0  0  0  0  0
   -5.5630   58.7783   75.7547 H   0  0  0  0  0  0  0  0  0  0  0  0
   -4.5852   59.5330   74.4504 H   0  0  0  0  0  0  0  0  0  0  0  0
   -4.8658   57.7588   74.4504 H   0  0  0  0  0  0  0  0  0  0  0  0
   -3.1702   54.4885   76.1155 H   0  0  0  0  0  0  0  0  0  0  0  0
   -3.5595   55.5934   74.7538 H   0  0  0  0  0  0  0  0  0  0  0  0
   -2.0141   54.6777   74.7538 H   0  0  0  0  0  0  0  0  0  0  0  0
    1.7148   64.0551   70.6525 H   0  0  0  0  0  0  0  0  0  0  0  0
    0.4233   63.2472   69.6115 H   0  0  0  0  0  0  0  0  0  0  0  0
   -1.2478   64.5944   70.3849 H   0  0  0  0  0  0  0  0  0  0  0  0
   -0.1954   65.1434   71.8223 H   0  0  0  0  0  0  0  0  0  0  0  0
   -0.1212   66.9866   70.7781 H   0  0  0  0  0  0  0  0  0  0  0  0
   -0.9280   65.5076   68.2837 H   0  0  0  0  0  0  0  0  0  0  0  0
   -1.6623   66.9616   69.1155 H   0  0  0  0  0  0  0  0  0  0  0  0
    0.5509   66.8244   67.0815 H   0  0  0  0  0  0  0  0  0  0  0  0
   -0.8532   67.9377   67.1974 H   0  0  0  0  0  0  0  0  0  0  0  0
    0.1617   68.8059   69.2257 H   0  0  0  0  0  0  0  0  0  0  0  0
    2.7874   67.6918   68.5026 H   0  0  0  0  0  0  0  0  0  0  0  0
    2.2059   68.3914   70.0725 H   0  0  0  0  0  0  0  0  0  0  0  0
    1.8786   65.6297   68.9477 H   0  0  0  0  0  0  0  0  0  0  0  0
    2.1647   66.2004   70.6493 H   0  0  0  0  0  0  0  0  0  0  0  0
    0.9630   69.3421   66.5886 H   0  0  0  0  0  0  0  0  0  0  0  0
    0.7062   70.4679   67.9993 H   0  0  0  0  0  0  0  0  0  0  0  0
    3.1319   68.9983   65.7581 H   0  0  0  0  0  0  0  0  0  0  0  0
    5.5713   69.4822   65.8828 H   0  0  0  0  0  0  0  0  0  0  0  0
    6.5289   70.5770   67.9070 H   0  0  0  0  0  0  0  0  0  0  0  0
    5.0452   71.1847   69.8154 H   0  0  0  0  0  0  0  0  0  0  0  0
    2.6018   70.7085   69.7013 H   0  0  0  0  0  0  0  0  0  0  0  0
  2  1  2  0
  3  1  1  0
  5  4  2  0
  6  5  1  0
  7  6  1  0
  8  7  1  0
  8  1  1  0
  9  8  2  0
 10  9  1  0
 11 10  2  0
 12 10  1  0
 12  6  2  0
 13 12  1  0
 14  4  1  0
 14 13  2  0
 16 15  1  0
 16  4  1  0
 17 14  1  0
 18 17  1  0
 19  3  1  0
 20 19  1  0
 21 20  1  0
 22 21  1  0
 23 22  1  0
 24 23  1  0
 25 24  1  0
 26 25  1  0
 26 21  1  0
 27 24  1  0
 28 27  1  0
 29 28  2  0
 30 29  1  0
 31 30  2  0
 32 31  1  0
 33 28  1  0
 33 32  2  0
  3 34  1  0
  5 35  1  0
  9 36  1  0
 13 37  1  0
 15 38  1  0
 15 39  1  0
 15 40  1  0
 18 41  1  0
 18 42  1  0
 18 43  1  0
 19 44  1  0
 19 45  1  0
 20 46  1  0
 20 47  1  0
 21 48  1  0
 22 49  1  0
 22 50  1  0
 23 51  1  0
 23 52  1  0
 24 53  1  0
 25 54  1  0
 25 55  1  0
 26 56  1  0
 26 57  1  0
 27 58  1  0
 27 59  1  0
 29 60  1  0
 30 61  1  0
 31 62  1  0
 32 63  1  0
 33 64  1  0
M  CHG  1  24   1
M  END
>  <score>  (9) 
-9.412

$$$$
