=
     RDKit          3D

 41 42  0  0  0  0  0  0  0  0999 V2000
    4.0120   68.9320   64.4580 C   0  0  0  0  0  0  0  0  0  0  0  0
    2.7910   68.7760   65.1180 C   0  0  0  0  0  0  0  0  0  0  0  0
    2.6500   69.1320   66.4650 C   0  0  0  0  0  0  0  0  0  0  0  0
    3.7250   69.7250   67.1510 C   0  0  0  0  0  0  0  0  0  0  0  0
    4.9570   69.8790   66.4850 C   0  0  0  0  0  0  0  0  0  0  0  0
    5.0960   69.4760   65.1450 C   0  0  0  0  0  0  0  0  0  0  0  0
    6.0210   70.4490   67.1980 C   0  0  0  0  0  0  0  0  0  0  0  0
    5.8380   70.8440   68.5180 C   0  0  0  0  0  0  0  0  0  0  0  0
    4.5920   70.6600   69.0840 C   0  0  0  0  0  0  0  0  0  0  0  0
    3.5380   70.1210   68.4300 N   0  0  0  0  0  0  0  0  0  0  0  0
    2.7320   68.3800   62.5290 C   0  0  0  0  0  0  0  0  0  0  0  0
    4.0040   68.5310   63.1520 O   0  0  0  0  0  0  0  0  0  0  0  0
    1.3830   69.0600   67.1470 N   0  0  0  0  0  0  0  0  0  0  0  0
    0.8540   67.7110   67.4390 C   0  0  1  0  0  0  0  0  0  0  0  0
    1.1120   67.3000   68.8900 C   0  0  0  0  0  0  0  0  0  0  0  0
   -0.6650   67.7020   67.1610 C   0  0  0  0  0  0  0  0  0  0  0  0
   -1.3160   68.9920   66.6220 C   0  0  0  0  0  0  0  0  0  0  0  0
   -2.5220   68.8170   65.7080 C   0  0  0  0  0  0  0  0  0  0  0  0
   -3.7140   68.4920   66.5160 N   0  0  0  0  0  4  0  0  0  0  0  0
    1.9278   68.3677   64.5719 H   0  0  0  0  0  0  0  0  0  0  0  0
    6.0647   69.5906   64.6365 H   0  0  0  0  0  0  0  0  0  0  0  0
    6.9993   70.5835   66.7135 H   0  0  0  0  0  0  0  0  0  0  0  0
    6.6616   71.2901   69.0948 H   0  0  0  0  0  0  0  0  0  0  0  0
    4.4480   70.9704   70.1294 H   0  0  0  0  0  0  0  0  0  0  0  0
    1.9541   68.2877   63.3013 H   0  0  0  0  0  0  0  0  0  0  0  0
    2.5239   69.2597   61.9023 H   0  0  0  0  0  0  0  0  0  0  0  0
    2.7357   67.4760   61.9023 H   0  0  0  0  0  0  0  0  0  0  0  0
    0.8690   69.9102   67.4188 H   0  0  0  0  0  0  0  0  0  0  0  0
    1.3721   66.9877   66.7921 H   0  0  0  0  0  0  0  0  0  0  0  0
    0.6509   68.0345   69.5667 H   0  0  0  0  0  0  0  0  0  0  0  0
    0.6746   66.3075   69.0733 H   0  0  0  0  0  0  0  0  0  0  0  0
    2.1960   67.2625   69.0733 H   0  0  0  0  0  0  0  0  0  0  0  0
   -0.8568   66.9078   66.4245 H   0  0  0  0  0  0  0  0  0  0  0  0
   -1.1220   67.5600   68.1515 H   0  0  0  0  0  0  0  0  0  0  0  0
   -1.6371   69.5904   67.4873 H   0  0  0  0  0  0  0  0  0  0  0  0
   -0.5451   69.4667   65.9972 H   0  0  0  0  0  0  0  0  0  0  0  0
   -2.6993   69.7503   65.1534 H   0  0  0  0  0  0  0  0  0  0  0  0
   -2.3272   67.9984   64.9996 H   0  0  0  0  0  0  0  0  0  0  0  0
   -3.4784   68.5562   67.5166 H   0  0  0  0  0  0  0  0  0  0  0  0
   -4.4688   69.1579   66.2976 H   0  0  0  0  0  0  0  0  0  0  0  0
   -4.0264   67.5351   66.2976 H   0  0  0  0  0  0  0  0  0  0  0  0
  2  1  2  0
  3  2  1  0
  4  3  2  0
  5  4  1  0
  6  1  1  0
  6  5  2  0
  7  5  1  0
  8  7  2  0
  9  8  1  0
 10  9  2  0
 10  4  1  0
 12 11  1  0
 12  1  1  0
 13  3  1  0
 14 13  1  0
 15 14  1  0
 16 14  1  0
 17 16  1  0
 18 17  1  0
 19 18  1  0
  2 20  1  0
  6 21  1  0
  7 22  1  0
  8 23  1  0
  9 24  1  0
 11 25  1  0
 11 26  1  0
 11 27  1  0
 13 28  1  0
 14 29  1  6
 15 30  1  0
 15 31  1  0
 15 32  1  0
 16 33  1  0
 16 34  1  0
 17 35  1  0
 17 36  1  0
 18 37  1  0
 18 38  1  0
 19 39  1  0
 19 40  1  0
 19 41  1  0
M  CHG  1  19   1
M  END
>  <score>  (1) 
-8.611

$$$$
=
     RDKit          3D

 41 42  0  0  0  0  0  0  0  0999 V2000
    4.8290   70.2260   68.0300 C   0  0  0  0  0  0  0  0  0  0  0  0
    3.4910   69.9140   68.2780 C   0  0  0  0  0  0  0  0  0  0  0  0
    2.6470   69.4870   67.2440 C   0  0  0  0  0  0  0  0  0  0  0  0
    3.1640   69.2960   65.9500 C   0  0  0  0  0  0  0  0  0  0  0  0
    4.5150   69.6130   65.7010 C   0  0  0  0  0  0  0  0  0  0  0  0
    5.3380   70.0830   66.7410 C   0  0  0  0  0  0  0  0  0  0  0  0
    4.9990   69.4380   64.3980 C   0  0  0  0  0  0  0  0  0  0  0  0
    4.1550   68.9620   63.4020 C   0  0  0  0  0  0  0  0  0  0  0  0
    2.8490   68.6690   63.7430 C   0  0  0  0  0  0  0  0  0  0  0  0
    2.3430   68.8180   64.9890 N   0  0  0  0  0  0  0  0  0  0  0  0
    6.9040   70.9500   68.9460 C   0  0  0  0  0  0  0  0  0  0  0  0
    5.5260   70.6390   69.1300 O   0  0  0  0  0  0  0  0  0  0  0  0
    1.2870   69.0810   67.4840 N   0  0  0  0  0  0  0  0  0  0  0  0
    1.0380   67.6340   67.6530 C   0  0  1  0  0  0  0  0  0  0  0  0
    1.0870   67.2160   69.1250 C   0  0  0  0  0  0  0  0  0  0  0  0
   -0.3500   67.2960   67.0660 C   0  0  0  0  0  0  0  0  0  0  0  0
   -1.4400   68.3860   67.0960 C   0  0  0  0  0  0  0  0  0  0  0  0
   -1.9580   68.8700   65.7470 C   0  0  0  0  0  0  0  0  0  0  0  0
   -0.8870   68.7610   64.7370 N   0  0  0  0  0  4  0  0  0  0  0  0
    3.0936   70.0046   69.2997 H   0  0  0  0  0  0  0  0  0  0  0  0
    6.3879   70.3387   66.5354 H   0  0  0  0  0  0  0  0  0  0  0  0
    6.0467   69.6773   64.1635 H   0  0  0  0  0  0  0  0  0  0  0  0
    4.5163   68.8227   62.3724 H   0  0  0  0  0  0  0  0  0  0  0  0
    2.1806   68.2922   62.9548 H   0  0  0  0  0  0  0  0  0  0  0  0
    7.3893   71.0595   69.9270 H   0  0  0  0  0  0  0  0  0  0  0  0
    7.3911   70.1392   68.3844 H   0  0  0  0  0  0  0  0  0  0  0  0
    6.9956   71.8914   68.3844 H   0  0  0  0  0  0  0  0  0  0  0  0
    0.5215   69.7682   67.5356 H   0  0  0  0  0  0  0  0  0  0  0  0
    1.8289   67.0821   67.1239 H   0  0  0  0  0  0  0  0  0  0  0  0
    0.9826   68.1062   69.7626 H   0  0  0  0  0  0  0  0  0  0  0  0
    0.2647   66.5161   69.3350 H   0  0  0  0  0  0  0  0  0  0  0  0
    2.0488   66.7253   69.3350 H   0  0  0  0  0  0  0  0  0  0  0  0
   -0.1990   67.0149   66.0133 H   0  0  0  0  0  0  0  0  0  0  0  0
   -0.7383   66.5047   67.7241 H   0  0  0  0  0  0  0  0  0  0  0  0
   -2.2966   67.9861   67.6585 H   0  0  0  0  0  0  0  0  0  0  0  0
   -0.9603   69.2634   67.5544 H   0  0  0  0  0  0  0  0  0  0  0  0
   -2.8145   68.2516   65.4405 H   0  0  0  0  0  0  0  0  0  0  0  0
   -2.2738   69.9202   65.8325 H   0  0  0  0  0  0  0  0  0  0  0  0
    0.0231   68.6684   65.2103 H   0  0  0  0  0  0  0  0  0  0  0  0
   -1.0536   67.9326   64.1480 H   0  0  0  0  0  0  0  0  0  0  0  0
   -0.8833   69.6060   64.1480 H   0  0  0  0  0  0  0  0  0  0  0  0
  2  1  2  0
  3  2  1  0
  4  3  2  0
  5  4  1  0
  6  1  1  0
  6  5  2  0
  7  5  1  0
  8  7  2  0
  9  8  1  0
 10  9  2  0
 10  4  1  0
 12 11  1  0
 12  1  1  0
 13  3  1  0
 14 13  1  0
 15 14  1  0
 16 14  1  0
 17 16  1  0
 18 17  1  0
 19 18  1  0
  2 20  1  0
  6 21  1  0
  7 22  1  0
  8 23  1  0
  9 24  1  0
 11 25  1  0
 11 26  1  0
 11 27  1  0
 13 28  1  0
 14 29  1  6
 15 30  1  0
 15 31  1  0
 15 32  1  0
 16 33  1  0
 16 34  1  0
 17 35  1  0
 17 36  1  0
 18 37  1  0
 18 38  1  0
 19 39  1  0
 19 40  1  0
 19 41  1  0
M  CHG  1  19   1
M  END
>  <score>  (2) 
-8.415

$$$$
=
     RDKit          3D

 41 42  0  0  0  0  0  0  0  0999 V2000
    1.9180   69.3510   67.5420 C   0  0  0  0  0  0  0  0  0  0  0  0
    2.3620   68.9880   66.2690 C   0  0  0  0  0  0  0  0  0  0  0  0
    3.6790   69.2450   65.8660 C   0  0  0  0  0  0  0  0  0  0  0  0
    4.5950   69.8080   66.7730 C   0  0  0  0  0  0  0  0  0  0  0  0
    4.1430   70.1760   68.0560 C   0  0  0  0  0  0  0  0  0  0  0  0
    2.8070   69.9520   68.4320 C   0  0  0  0  0  0  0  0  0  0  0  0
    5.0690   70.7590   68.9330 C   0  0  0  0  0  0  0  0  0  0  0  0
    6.3820   70.9540   68.5260 C   0  0  0  0  0  0  0  0  0  0  0  0
    6.7340   70.5530   67.2520 C   0  0  0  0  0  0  0  0  0  0  0  0
    5.8750   69.9810   66.3770 N   0  0  0  0  0  0  0  0  0  0  0  0
    0.1840   67.7200   67.5020 C   0  0  0  0  0  0  0  0  0  0  0  0
    0.6090   69.0490   67.7910 O   0  0  0  0  0  0  0  0  0  0  0  0
    4.1880   68.8080   64.5910 N   0  0  0  0  0  0  0  0  0  0  0  0
    3.3120   67.9370   63.7810 C   0  0  1  0  0  0  0  0  0  0  0  0
    3.1760   68.4450   62.3430 C   0  0  0  0  0  0  0  0  0  0  0  0
    3.9010   66.5100   63.7710 C   0  0  0  0  0  0  0  0  0  0  0  0
    3.1820   65.4170   64.5890 C   0  0  0  0  0  0  0  0  0  0  0  0
    3.7710   64.0140   64.5190 C   0  0  0  0  0  0  0  0  0  0  0  0
    4.8550   63.9800   63.5170 N   0  0  0  0  0  4  0  0  0  0  0  0
    1.6684   68.4935   65.5730 H   0  0  0  0  0  0  0  0  0  0  0  0
    2.4617   70.2521   69.4324 H   0  0  0  0  0  0  0  0  0  0  0  0
    4.7552   71.0617   69.9429 H   0  0  0  0  0  0  0  0  0  0  0  0
    7.1205   71.4145   69.1987 H   0  0  0  0  0  0  0  0  0  0  0  0
    7.7743   70.7078   66.9297 H   0  0  0  0  0  0  0  0  0  0  0  0
    0.0106   67.1777   68.4432 H   0  0  0  0  0  0  0  0  0  0  0  0
   -0.7488   67.7518   66.9199 H   0  0  0  0  0  0  0  0  0  0  0  0
    0.9621   67.2046   66.9199 H   0  0  0  0  0  0  0  0  0  0  0  0
    5.1212   69.0904   64.2590 H   0  0  0  0  0  0  0  0  0  0  0  0
    2.3084   67.9403   64.2312 H   0  0  0  0  0  0  0  0  0  0  0  0
    2.8915   69.5075   62.3548 H   0  0  0  0  0  0  0  0  0  0  0  0
    4.1370   68.3285   61.8205 H   0  0  0  0  0  0  0  0  0  0  0  0
    2.4018   67.8639   61.8205 H   0  0  0  0  0  0  0  0  0  0  0  0
    3.9212   66.1732   62.7240 H   0  0  0  0  0  0  0  0  0  0  0  0
    4.8800   66.6166   64.2612 H   0  0  0  0  0  0  0  0  0  0  0  0
    3.1899   65.7300   65.6435 H   0  0  0  0  0  0  0  0  0  0  0  0
    2.1799   65.3333   64.1432 H   0  0  0  0  0  0  0  0  0  0  0  0
    4.1746   63.7371   65.5041 H   0  0  0  0  0  0  0  0  0  0  0  0
    2.9841   63.3020   64.2294 H   0  0  0  0  0  0  0  0  0  0  0  0
    5.7657   63.9514   63.9973 H   0  0  0  0  0  0  0  0  0  0  0  0
    4.7514   63.1418   62.9274 H   0  0  0  0  0  0  0  0  0  0  0  0
    4.8041   64.8230   62.9274 H   0  0  0  0  0  0  0  0  0  0  0  0
  2  1  2  0
  3  2  1  0
  4  3  2  0
  5  4  1  0
  6  1  1  0
  6  5  2  0
  7  5  1  0
  8  7  2  0
  9  8  1  0
 10  9  2  0
 10  4  1  0
 12 11  1  0
 12  1  1  0
 13  3  1  0
 14 13  1  0
 15 14  1  0
 16 14  1  0
 17 16  1  0
 18 17  1  0
 19 18  1  0
  2 20  1  0
  6 21  1  0
  7 22  1  0
  8 23  1  0
  9 24  1  0
 11 25  1  0
 11 26  1  0
 11 27  1  0
 13 28  1  0
 14 29  1  1
 15 30  1  0
 15 31  1  0
 15 32  1  0
 16 33  1  0
 16 34  1  0
 17 35  1  0
 17 36  1  0
 18 37  1  0
 18 38  1  0
 19 39  1  0
 19 40  1  0
 19 41  1  0
M  CHG  1  19   1
M  END
>  <score>  (3) 
-8.29

$$$$
=
     RDKit          3D

 41 42  0  0  0  0  0  0  0  0999 V2000
    4.7150   69.8870   67.2120 C   0  0  0  0  0  0  0  0  0  0  0  0
    3.3870   69.4630   67.2850 C   0  0  0  0  0  0  0  0  0  0  0  0
    2.6910   69.0730   66.1330 C   0  0  0  0  0  0  0  0  0  0  0  0
    3.3530   69.0340   64.8920 C   0  0  0  0  0  0  0  0  0  0  0  0
    4.6930   69.4660   64.8210 C   0  0  0  0  0  0  0  0  0  0  0  0
    5.3640   69.8960   65.9790 C   0  0  0  0  0  0  0  0  0  0  0  0
    5.3220   69.4420   63.5680 C   0  0  0  0  0  0  0  0  0  0  0  0
    4.6260   69.0000   62.4510 C   0  0  0  0  0  0  0  0  0  0  0  0
    3.3180   68.5880   62.6200 C   0  0  0  0  0  0  0  0  0  0  0  0
    2.6760   68.5890   63.8110 N   0  0  0  0  0  0  0  0  0  0  0  0
    6.2030   71.3150   68.4020 C   0  0  0  0  0  0  0  0  0  0  0  0
    5.2590   70.2470   68.4120 O   0  0  0  0  0  0  0  0  0  0  0  0
    1.3490   68.5530   66.1880 N   0  0  0  0  0  0  0  0  0  0  0  0
    0.6080   68.7390   67.4530 C   0  0  1  0  0  0  0  0  0  0  0  0
   -0.7330   69.4410   67.2290 C   0  0  0  0  0  0  0  0  0  0  0  0
    0.3680   67.3570   68.0970 C   0  0  0  0  0  0  0  0  0  0  0  0
    1.0990   67.0280   69.4150 C   0  0  0  0  0  0  0  0  0  0  0  0
    0.3550   66.1380   70.4030 C   0  0  0  0  0  0  0  0  0  0  0  0
    0.2430   64.7720   69.8540 N   0  0  0  0  0  4  0  0  0  0  0  0
    2.8797   69.4346   68.2606 H   0  0  0  0  0  0  0  0  0  0  0  0
    6.4062   70.2412   65.9115 H   0  0  0  0  0  0  0  0  0  0  0  0
    6.3664   69.7732   63.4701 H   0  0  0  0  0  0  0  0  0  0  0  0
    5.1023   68.9784   61.4597 H   0  0  0  0  0  0  0  0  0  0  0  0
    2.7665   68.2388   61.7346 H   0  0  0  0  0  0  0  0  0  0  0  0
    6.4506   71.5952   69.4365 H   0  0  0  0  0  0  0  0  0  0  0  0
    7.1164   70.9922   67.8809 H   0  0  0  0  0  0  0  0  0  0  0  0
    5.7705   72.1818   67.8809 H   0  0  0  0  0  0  0  0  0  0  0  0
    0.9246   68.0729   65.3816 H   0  0  0  0  0  0  0  0  0  0  0  0
    1.2098   69.3771   68.1168 H   0  0  0  0  0  0  0  0  0  0  0  0
   -1.1889   69.6796   68.2012 H   0  0  0  0  0  0  0  0  0  0  0  0
   -0.5705   70.3697   66.6624 H   0  0  0  0  0  0  0  0  0  0  0  0
   -1.4036   68.7783   66.6624 H   0  0  0  0  0  0  0  0  0  0  0  0
   -0.7111   67.2719   68.2929 H   0  0  0  0  0  0  0  0  0  0  0  0
    0.7832   66.6430   67.3705 H   0  0  0  0  0  0  0  0  0  0  0  0
    2.0424   66.5245   69.1569 H   0  0  0  0  0  0  0  0  0  0  0  0
    1.2208   67.9932   69.9283 H   0  0  0  0  0  0  0  0  0  0  0  0
    0.9069   66.1060   71.3540 H   0  0  0  0  0  0  0  0  0  0  0  0
   -0.6521   66.5459   70.5745 H   0  0  0  0  0  0  0  0  0  0  0  0
    0.1874   64.0945   70.6278 H   0  0  0  0  0  0  0  0  0  0  0  0
   -0.6065   64.7030   69.2756 H   0  0  0  0  0  0  0  0  0  0  0  0
    1.0699   64.5656   69.2756 H   0  0  0  0  0  0  0  0  0  0  0  0
  2  1  2  0
  3  2  1  0
  4  3  2  0
  5  4  1  0
  6  1  1  0
  6  5  2  0
  7  5  1  0
  8  7  2  0
  9  8  1  0
 10  9  2  0
 10  4  1  0
 12 11  1  0
 12  1  1  0
 13  3  1  0
 14 13  1  0
 15 14  1  0
 16 14  1  0
 17 16  1  0
 18 17  1  0
 19 18  1  0
  2 20  1  0
  6 21  1  0
  7 22  1  0
  8 23  1  0
  9 24  1  0
 11 25  1  0
 11 26  1  0
 11 27  1  0
 13 28  1  0
 14 29  1  1
 15 30  1  0
 15 31  1  0
 15 32  1  0
 16 33  1  0
 16 34  1  0
 17 35  1  0
 17 36  1  0
 18 37  1  0
 18 38  1  0
 19 39  1  0
 19 40  1  0
 19 41  1  0
M  CHG  1  19   1
M  END
>  <score>  (4) 
-8.007

$$$$
=
     RDKit          3D

 41 42  0  0  0  0  0  0  0  0999 V2000
    4.4000   70.1410   67.2330 C   0  0  0  0  0  0  0  0  0  0  0  0
    4.6700   69.5150   66.0140 C   0  0  0  0  0  0  0  0  0  0  0  0
    3.7700   68.5940   65.4630 C   0  0  0  0  0  0  0  0  0  0  0  0
    2.5420   68.3430   66.1020 C   0  0  0  0  0  0  0  0  0  0  0  0
    2.2730   68.9740   67.3330 C   0  0  0  0  0  0  0  0  0  0  0  0
    3.2060   69.8630   67.8950 C   0  0  0  0  0  0  0  0  0  0  0  0
    1.0540   68.6880   67.9630 C   0  0  0  0  0  0  0  0  0  0  0  0
    0.1560   67.8110   67.3680 C   0  0  0  0  0  0  0  0  0  0  0  0
    0.5030   67.2470   66.1550 C   0  0  0  0  0  0  0  0  0  0  0  0
    1.6660   67.5010   65.5120 N   0  0  0  0  0  0  0  0  0  0  0  0
    6.7070   70.5090   67.6920 C   0  0  0  0  0  0  0  0  0  0  0  0
    5.3720   71.0050   67.6510 O   0  0  0  0  0  0  0  0  0  0  0  0
    3.9820   67.9960   64.1700 N   0  0  0  0  0  0  0  0  0  0  0  0
    4.0250   68.9070   63.0070 C   0  0  1  0  0  0  0  0  0  0  0  0
    5.4530   69.1060   62.4930 C   0  0  0  0  0  0  0  0  0  0  0  0
    3.1470   68.3190   61.8810 C   0  0  0  0  0  0  0  0  0  0  0  0
    1.8130   69.0200   61.5550 C   0  0  0  0  0  0  0  0  0  0  0  0
    0.8600   69.2500   62.7220 C   0  0  0  0  0  0  0  0  0  0  0  0
   -0.1560   68.1790   62.7510 N   0  0  0  0  0  4  0  0  0  0  0  0
    5.6025   69.7485   65.4792 H   0  0  0  0  0  0  0  0  0  0  0  0
    2.9922   70.3414   68.8622 H   0  0  0  0  0  0  0  0  0  0  0  0
    0.8088   69.1573   68.9272 H   0  0  0  0  0  0  0  0  0  0  0  0
   -0.8041   67.5722   67.8487 H   0  0  0  0  0  0  0  0  0  0  0  0
   -0.2076   66.5512   65.6850 H   0  0  0  0  0  0  0  0  0  0  0  0
    7.0226   70.3917   68.7392 H   0  0  0  0  0  0  0  0  0  0  0  0
    6.7518   69.5342   67.1842 H   0  0  0  0  0  0  0  0  0  0  0  0
    7.3774   71.2181   67.1842 H   0  0  0  0  0  0  0  0  0  0  0  0
    4.0985   66.9785   64.0607 H   0  0  0  0  0  0  0  0  0  0  0  0
    3.6450   69.8900   63.3222 H   0  0  0  0  0  0  0  0  0  0  0  0
    6.1400   69.2017   63.3467 H   0  0  0  0  0  0  0  0  0  0  0  0
    5.7466   68.2401   61.8814 H   0  0  0  0  0  0  0  0  0  0  0  0
    5.4986   70.0192   61.8814 H   0  0  0  0  0  0  0  0  0  0  0  0
    3.7505   68.3228   60.9614 H   0  0  0  0  0  0  0  0  0  0  0  0
    2.8495   67.3289   62.2567 H   0  0  0  0  0  0  0  0  0  0  0  0
    2.0497   70.0017   61.1190 H   0  0  0  0  0  0  0  0  0  0  0  0
    1.2826   68.3339   60.8783 H   0  0  0  0  0  0  0  0  0  0  0  0
    1.4270   69.2422   63.6646 H   0  0  0  0  0  0  0  0  0  0  0  0
    0.3615   70.2229   62.5999 H   0  0  0  0  0  0  0  0  0  0  0  0
   -0.3791   67.9438   63.7287 H   0  0  0  0  0  0  0  0  0  0  0  0
   -1.0089   68.5018   62.2723 H   0  0  0  0  0  0  0  0  0  0  0  0
    0.2113   67.3442   62.2723 H   0  0  0  0  0  0  0  0  0  0  0  0
  2  1  2  0
  3  2  1  0
  4  3  2  0
  5  4  1  0
  6  1  1  0
  6  5  2  0
  7  5  1  0
  8  7  2  0
  9  8  1  0
 10  9  2  0
 10  4  1  0
 12 11  1  0
 12  1  1  0
 13  3  1  0
 14 13  1  0
 15 14  1  0
 16 14  1  0
 17 16  1  0
 18 17  1  0
 19 18  1  0
  2 20  1  0
  6 21  1  0
  7 22  1  0
  8 23  1  0
  9 24  1  0
 11 25  1  0
 11 26  1  0
 11 27  1  0
 13 28  1  0
 14 29  1  1
 15 30  1  0
 15 31  1  0
 15 32  1  0
 16 33  1  0
 16 34  1  0
 17 35  1  0
 17 36  1  0
 18 37  1  0
 18 38  1  0
 19 39  1  0
 19 40  1  0
 19 41  1  0
M  CHG  1  19   1
M  END
>  <score>  (5) 
-7.655

$$$$
=
     RDKit          3D

 41 42  0  0  0  0  0  0  0  0999 V2000
    1.8990   69.3360   67.7570 C   0  0  0  0  0  0  0  0  0  0  0  0
    2.3090   69.0660   66.4500 C   0  0  0  0  0  0  0  0  0  0  0  0
    3.6130   69.3600   66.0300 C   0  0  0  0  0  0  0  0  0  0  0  0
    4.5510   69.8650   66.9490 C   0  0  0  0  0  0  0  0  0  0  0  0
    4.1330   70.1390   68.2670 C   0  0  0  0  0  0  0  0  0  0  0  0
    2.8090   69.8790   68.6620 C   0  0  0  0  0  0  0  0  0  0  0  0
    5.0790   70.6660   69.1570 C   0  0  0  0  0  0  0  0  0  0  0  0
    6.3800   70.8980   68.7290 C   0  0  0  0  0  0  0  0  0  0  0  0
    6.6990   70.5900   67.4200 C   0  0  0  0  0  0  0  0  0  0  0  0
    5.8180   70.0740   66.5320 N   0  0  0  0  0  0  0  0  0  0  0  0
    0.2520   67.6270   67.9510 C   0  0  0  0  0  0  0  0  0  0  0  0
    0.5990   69.0070   68.0200 O   0  0  0  0  0  0  0  0  0  0  0  0
    4.0890   69.0170   64.7140 N   0  0  0  0  0  0  0  0  0  0  0  0
    4.3670   67.5900   64.4510 C   0  0  1  0  0  0  0  0  0  0  0  0
    3.1050   66.7330   64.5700 C   0  0  0  0  0  0  0  0  0  0  0  0
    4.9540   67.4510   63.0290 C   0  0  0  0  0  0  0  0  0  0  0  0
    4.7120   68.5960   62.0250 C   0  0  0  0  0  0  0  0  0  0  0  0
    3.3410   68.6440   61.3620 C   0  0  0  0  0  0  0  0  0  0  0  0
    3.4920   68.9810   59.9330 N   0  0  0  0  0  4  0  0  0  0  0  0
    1.5988   68.6164   65.7404 H   0  0  0  0  0  0  0  0  0  0  0  0
    2.4899   70.1052   69.6901 H   0  0  0  0  0  0  0  0  0  0  0  0
    4.7914   70.8957   70.1936 H   0  0  0  0  0  0  0  0  0  0  0  0
    7.1346   71.3148   69.4122 H   0  0  0  0  0  0  0  0  0  0  0  0
    7.7288   70.7751   67.0804 H   0  0  0  0  0  0  0  0  0  0  0  0
    0.1504   67.2231   68.9691 H   0  0  0  0  0  0  0  0  0  0  0  0
   -0.7022   67.5152   67.4153 H   0  0  0  0  0  0  0  0  0  0  0  0
    1.0398   67.0772   67.4153 H   0  0  0  0  0  0  0  0  0  0  0  0
    4.2292   69.7348   63.9888 H   0  0  0  0  0  0  0  0  0  0  0  0
    5.0842   67.2321   65.2044 H   0  0  0  0  0  0  0  0  0  0  0  0
    2.8693   66.5729   65.6325 H   0  0  0  0  0  0  0  0  0  0  0  0
    2.2646   67.2480   64.0815 H   0  0  0  0  0  0  0  0  0  0  0  0
    3.2738   65.7620   64.0815 H   0  0  0  0  0  0  0  0  0  0  0  0
    6.0427   67.3355   63.1356 H   0  0  0  0  0  0  0  0  0  0  0  0
    4.4196   66.5923   62.5966 H   0  0  0  0  0  0  0  0  0  0  0  0
    4.8570   69.5457   62.5607 H   0  0  0  0  0  0  0  0  0  0  0  0
    5.4242   68.4185   61.2057 H   0  0  0  0  0  0  0  0  0  0  0  0
    2.8542   67.6621   61.4568 H   0  0  0  0  0  0  0  0  0  0  0  0
    2.7245   69.4105   61.8543 H   0  0  0  0  0  0  0  0  0  0  0  0
    3.9116   69.9174   59.8436 H   0  0  0  0  0  0  0  0  0  0  0  0
    4.1024   68.2865   59.4791 H   0  0  0  0  0  0  0  0  0  0  0  0
    2.5674   68.9743   59.4791 H   0  0  0  0  0  0  0  0  0  0  0  0
  2  1  2  0
  3  2  1  0
  4  3  2  0
  5  4  1  0
  6  1  1  0
  6  5  2  0
  7  5  1  0
  8  7  2  0
  9  8  1  0
 10  9  2  0
 10  4  1  0
 12 11  1  0
 12  1  1  0
 13  3  1  0
 14 13  1  0
 15 14  1  0
 16 14  1  0
 17 16  1  0
 18 17  1  0
 19 18  1  0
  2 20  1  0
  6 21  1  0
  7 22  1  0
  8 23  1  0
  9 24  1  0
 11 25  1  0
 11 26  1  0
 11 27  1  0
 13 28  1  0
 14 29  1  1
 15 30  1  0
 15 31  1  0
 15 32  1  0
 16 33  1  0
 16 34  1  0
 17 35  1  0
 17 36  1  0
 18 37  1  0
 18 38  1  0
 19 39  1  0
 19 40  1  0
 19 41  1  0
M  CHG  1  19   1
M  END
>  <score>  (6) 
-7.62

$$$$
=
     RDKit          3D

 41 42  0  0  0  0  0  0  0  0999 V2000
    4.2660   69.7600   67.1680 C   0  0  0  0  0  0  0  0  0  0  0  0
    4.3710   69.5620   65.7900 C   0  0  0  0  0  0  0  0  0  0  0  0
    3.2740   69.1160   65.0410 C   0  0  0  0  0  0  0  0  0  0  0  0
    2.0260   68.9330   65.6640 C   0  0  0  0  0  0  0  0  0  0  0  0
    1.9240   69.1310   67.0550 C   0  0  0  0  0  0  0  0  0  0  0  0
    3.0450   69.5360   67.8010 C   0  0  0  0  0  0  0  0  0  0  0  0
    0.6760   68.9170   67.6560 C   0  0  0  0  0  0  0  0  0  0  0  0
   -0.4100   68.5270   66.8820 C   0  0  0  0  0  0  0  0  0  0  0  0
   -0.2140   68.3670   65.5240 C   0  0  0  0  0  0  0  0  0  0  0  0
    0.9710   68.5680   64.9030 N   0  0  0  0  0  0  0  0  0  0  0  0
    6.4560   70.6590   66.9130 C   0  0  0  0  0  0  0  0  0  0  0  0
    5.4190   70.1840   67.7670 O   0  0  0  0  0  0  0  0  0  0  0  0
    3.3290   68.9820   63.6080 N   0  0  0  0  0  0  0  0  0  0  0  0
    4.3520   68.0680   63.0570 C   0  0  1  0  0  0  0  0  0  0  0  0
    5.7080   68.7610   62.8990 C   0  0  0  0  0  0  0  0  0  0  0  0
    4.4970   66.8570   64.0030 C   0  0  0  0  0  0  0  0  0  0  0  0
    4.3400   65.4430   63.4090 C   0  0  0  0  0  0  0  0  0  0  0  0
    4.8760   64.2870   64.2450 C   0  0  0  0  0  0  0  0  0  0  0  0
    5.2070   63.1500   63.3650 N   0  0  0  0  0  4  0  0  0  0  0  0
    5.3283   69.7589   65.2852 H   0  0  0  0  0  0  0  0  0  0  0  0
    2.9577   69.6765   68.8885 H   0  0  0  0  0  0  0  0  0  0  0  0
    0.5563   69.0578   68.7404 H   0  0  0  0  0  0  0  0  0  0  0  0
   -1.3960   68.3510   67.3368 H   0  0  0  0  0  0  0  0  0  0  0  0
   -1.0731   68.0576   64.9106 H   0  0  0  0  0  0  0  0  0  0  0  0
    7.2880   71.0401   67.5234 H   0  0  0  0  0  0  0  0  0  0  0  0
    6.8143   69.8352   66.2781 H   0  0  0  0  0  0  0  0  0  0  0  0
    6.0663   71.4684   66.2781 H   0  0  0  0  0  0  0  0  0  0  0  0
    2.6841   69.5001   62.9943 H   0  0  0  0  0  0  0  0  0  0  0  0
    4.0262   67.7437   62.0576 H   0  0  0  0  0  0  0  0  0  0  0  0
    6.1281   68.9757   63.8927 H   0  0  0  0  0  0  0  0  0  0  0  0
    6.3938   68.1029   62.3454 H   0  0  0  0  0  0  0  0  0  0  0  0
    5.5764   69.7024   62.3454 H   0  0  0  0  0  0  0  0  0  0  0  0
    5.4998   66.9123   64.4516 H   0  0  0  0  0  0  0  0  0  0  0  0
    3.6516   66.9542   64.7001 H   0  0  0  0  0  0  0  0  0  0  0  0
    3.2665   65.2670   63.2461 H   0  0  0  0  0  0  0  0  0  0  0  0
    4.9490   65.4446   62.4930 H   0  0  0  0  0  0  0  0  0  0  0  0
    5.7809   64.6111   64.7800 H   0  0  0  0  0  0  0  0  0  0  0  0
    4.1101   63.9758   64.9706 H   0  0  0  0  0  0  0  0  0  0  0  0
    5.4459   62.3293   63.9397 H   0  0  0  0  0  0  0  0  0  0  0  0
    4.3956   62.9284   62.7705 H   0  0  0  0  0  0  0  0  0  0  0  0
    6.0105   63.3985   62.7705 H   0  0  0  0  0  0  0  0  0  0  0  0
  2  1  2  0
  3  2  1  0
  4  3  2  0
  5  4  1  0
  6  1  1  0
  6  5  2  0
  7  5  1  0
  8  7  2  0
  9  8  1  0
 10  9  2  0
 10  4  1  0
 12 11  1  0
 12  1  1  0
 13  3  1  0
 14 13  1  0
 15 14  1  0
 16 14  1  0
 17 16  1  0
 18 17  1  0
 19 18  1  0
  2 20  1  0
  6 21  1  0
  7 22  1  0
  8 23  1  0
  9 24  1  0
 11 25  1  0
 11 26  1  0
 11 27  1  0
 13 28  1  0
 14 29  1  6
 15 30  1  0
 15 31  1  0
 15 32  1  0
 16 33  1  0
 16 34  1  0
 17 35  1  0
 17 36  1  0
 18 37  1  0
 18 38  1  0
 19 39  1  0
 19 40  1  0
 19 41  1  0
M  CHG  1  19   1
M  END
>  <score>  (7) 
-7.33

$$$$
=
     RDKit          3D

 41 42  0  0  0  0  0  0  0  0999 V2000
    3.7300   66.6820   63.7570 C   0  0  0  0  0  0  0  0  0  0  0  0
    2.7880   66.4230   64.7540 C   0  0  0  0  0  0  0  0  0  0  0  0
    1.5450   67.0700   64.7560 C   0  0  0  0  0  0  0  0  0  0  0  0
    1.2040   67.9390   63.7040 C   0  0  0  0  0  0  0  0  0  0  0  0
    2.1580   68.2020   62.7000 C   0  0  0  0  0  0  0  0  0  0  0  0
    3.4180   67.5770   62.7360 C   0  0  0  0  0  0  0  0  0  0  0  0
    1.8030   69.0910   61.6760 C   0  0  0  0  0  0  0  0  0  0  0  0
    0.5450   69.6780   61.6730 C   0  0  0  0  0  0  0  0  0  0  0  0
   -0.3270   69.3530   62.6950 C   0  0  0  0  0  0  0  0  0  0  0  0
   -0.0270   68.4960   63.6980 N   0  0  0  0  0  0  0  0  0  0  0  0
    4.7980   64.5800   64.0890 C   0  0  0  0  0  0  0  0  0  0  0  0
    4.8990   65.9870   63.8900 O   0  0  0  0  0  0  0  0  0  0  0  0
    0.5230   66.7620   65.7230 N   0  0  0  0  0  0  0  0  0  0  0  0
    0.2190   67.7980   66.7320 C   0  0  1  0  0  0  0  0  0  0  0  0
   -0.9440   67.3860   67.6380 C   0  0  0  0  0  0  0  0  0  0  0  0
    1.4800   68.0430   67.5890 C   0  0  0  0  0  0  0  0  0  0  0  0
    1.9100   69.5000   67.8540 C   0  0  0  0  0  0  0  0  0  0  0  0
    3.3880   69.8200   67.6680 C   0  0  0  0  0  0  0  0  0  0  0  0
    3.7960   69.4930   66.2880 N   0  0  0  0  0  4  0  0  0  0  0  0
    3.0247   65.7009   65.5493 H   0  0  0  0  0  0  0  0  0  0  0  0
    4.1603   67.7961   61.9543 H   0  0  0  0  0  0  0  0  0  0  0  0
    2.5207   69.3233   60.8754 H   0  0  0  0  0  0  0  0  0  0  0  0
    0.2507   70.3814   60.8802 H   0  0  0  0  0  0  0  0  0  0  0  0
   -1.3236   69.8186   62.6927 H   0  0  0  0  0  0  0  0  0  0  0  0
    4.7824   64.3624   65.1671 H   0  0  0  0  0  0  0  0  0  0  0  0
    3.8710   64.2099   63.6268 H   0  0  0  0  0  0  0  0  0  0  0  0
    5.6627   64.0813   63.6268 H   0  0  0  0  0  0  0  0  0  0  0  0
    0.0261   65.8598   65.7118 H   0  0  0  0  0  0  0  0  0  0  0  0
   -0.0784   68.7173   66.2063 H   0  0  0  0  0  0  0  0  0  0  0  0
   -0.6440   67.4923   68.6909 H   0  0  0  0  0  0  0  0  0  0  0  0
   -1.8118   68.0314   67.4371 H   0  0  0  0  0  0  0  0  0  0  0  0
   -1.2120   66.3382   67.4371 H   0  0  0  0  0  0  0  0  0  0  0  0
    1.3059   67.5714   68.5674 H   0  0  0  0  0  0  0  0  0  0  0  0
    2.3015   67.6211   66.9914 H   0  0  0  0  0  0  0  0  0  0  0  0
    1.3401   70.1458   67.1698 H   0  0  0  0  0  0  0  0  0  0  0  0
    1.7082   69.6722   68.9215 H   0  0  0  0  0  0  0  0  0  0  0  0
    3.5571   70.8906   67.8557 H   0  0  0  0  0  0  0  0  0  0  0  0
    3.9826   69.2234   68.3755 H   0  0  0  0  0  0  0  0  0  0  0  0
    4.5995   68.8490   66.3110 H   0  0  0  0  0  0  0  0  0  0  0  0
    3.0107   69.0446   65.7949 H   0  0  0  0  0  0  0  0  0  0  0  0
    4.0626   70.3571   65.7949 H   0  0  0  0  0  0  0  0  0  0  0  0
  2  1  2  0
  3  2  1  0
  4  3  2  0
  5  4  1  0
  6  1  1  0
  6  5  2  0
  7  5  1  0
  8  7  2  0
  9  8  1  0
 10  9  2  0
 10  4  1  0
 12 11  1  0
 12  1  1  0
 13  3  1  0
 14 13  1  0
 15 14  1  0
 16 14  1  0
 17 16  1  0
 18 17  1  0
 19 18  1  0
  2 20  1  0
  6 21  1  0
  7 22  1  0
  8 23  1  0
  9 24  1  0
 11 25  1  0
 11 26  1  0
 11 27  1  0
 13 28  1  0
 14 29  1  6
 15 30  1  0
 15 31  1  0
 15 32  1  0
 16 33  1  0
 16 34  1  0
 17 35  1  0
 17 36  1  0
 18 37  1  0
 18 38  1  0
 19 39  1  0
 19 40  1  0
 19 41  1  0
M  CHG  1  19   1
M  END
>  <score>  (8) 
-7.119

$$$$
=
     RDKit          3D

 41 42  0  0  0  0  0  0  0  0999 V2000
    0.6760   66.6560   69.3970 C   0  0  0  0  0  0  0  0  0  0  0  0
    1.5520   67.4330   68.6360 C   0  0  0  0  0  0  0  0  0  0  0  0
    1.1040   68.1190   67.4990 C   0  0  0  0  0  0  0  0  0  0  0  0
   -0.2590   68.0900   67.1530 C   0  0  0  0  0  0  0  0  0  0  0  0
   -1.1410   67.3040   67.9210 C   0  0  0  0  0  0  0  0  0  0  0  0
   -0.6670   66.5860   69.0340 C   0  0  0  0  0  0  0  0  0  0  0  0
   -2.4890   67.2720   67.5410 C   0  0  0  0  0  0  0  0  0  0  0  0
   -2.9170   68.0040   66.4410 C   0  0  0  0  0  0  0  0  0  0  0  0
   -1.9810   68.7530   65.7540 C   0  0  0  0  0  0  0  0  0  0  0  0
   -0.6720   68.8160   66.0920 N   0  0  0  0  0  0  0  0  0  0  0  0
    1.6510   64.6790   70.2960 C   0  0  0  0  0  0  0  0  0  0  0  0
    1.2560   66.0370   70.4680 O   0  0  0  0  0  0  0  0  0  0  0  0
    1.9650   68.9920   66.7430 N   0  0  0  0  0  0  0  0  0  0  0  0
    2.9640   68.3530   65.8620 C   0  0  1  0  0  0  0  0  0  0  0  0
    2.3260   67.8020   64.5840 C   0  0  0  0  0  0  0  0  0  0  0  0
    4.0430   69.3950   65.4940 C   0  0  0  0  0  0  0  0  0  0  0  0
    5.2480   68.9320   64.6520 C   0  0  0  0  0  0  0  0  0  0  0  0
    5.3240   69.4560   63.2230 C   0  0  0  0  0  0  0  0  0  0  0  0
    5.9700   68.4490   62.3590 N   0  0  0  0  0  4  0  0  0  0  0  0
    2.6085   67.5076   68.9332 H   0  0  0  0  0  0  0  0  0  0  0  0
   -1.3607   65.9659   69.6208 H   0  0  0  0  0  0  0  0  0  0  0  0
   -3.2080   66.6675   68.1134 H   0  0  0  0  0  0  0  0  0  0  0  0
   -3.9708   67.9879   66.1258 H   0  0  0  0  0  0  0  0  0  0  0  0
   -2.3193   69.3316   64.8818 H   0  0  0  0  0  0  0  0  0  0  0  0
    1.7876   64.2093   71.2812 H   0  0  0  0  0  0  0  0  0  0  0  0
    0.8728   64.1388   69.7370 H   0  0  0  0  0  0  0  0  0  0  0  0
    2.5976   64.6405   69.7370 H   0  0  0  0  0  0  0  0  0  0  0  0
    1.8875   70.0167   66.8136 H   0  0  0  0  0  0  0  0  0  0  0  0
    3.4111   67.5057   66.4025 H   0  0  0  0  0  0  0  0  0  0  0  0
    1.5180   67.1042   64.8490 H   0  0  0  0  0  0  0  0  0  0  0  0
    1.9138   68.6327   63.9924 H   0  0  0  0  0  0  0  0  0  0  0  0
    3.0878   67.2732   63.9924 H   0  0  0  0  0  0  0  0  0  0  0  0
    3.5426   70.1978   64.9327 H   0  0  0  0  0  0  0  0  0  0  0  0
    4.4819   69.6845   66.4602 H   0  0  0  0  0  0  0  0  0  0  0  0
    6.1621   69.2517   65.1737 H   0  0  0  0  0  0  0  0  0  0  0  0
    5.1326   67.8423   64.5554 H   0  0  0  0  0  0  0  0  0  0  0  0
    4.3080   69.6580   62.8529 H   0  0  0  0  0  0  0  0  0  0  0  0
    5.9141   70.3841   63.2057 H   0  0  0  0  0  0  0  0  0  0  0  0
    6.4273   67.7362   62.9453 H   0  0  0  0  0  0  0  0  0  0  0  0
    5.2589   67.9999   61.7644 H   0  0  0  0  0  0  0  0  0  0  0  0
    6.6747   68.9081   61.7644 H   0  0  0  0  0  0  0  0  0  0  0  0
  2  1  2  0
  3  2  1  0
  4  3  2  0
  5  4  1  0
  6  1  1  0
  6  5  2  0
  7  5  1  0
  8  7  2  0
  9  8  1  0
 10  9  2  0
 10  4  1  0
 12 11  1  0
 12  1  1  0
 13  3  1  0
 14 13  1  0
 15 14  1  0
 16 14  1  0
 17 16  1  0
 18 17  1  0
 19 18  1  0
  2 20  1  0
  6 21  1  0
  7 22  1  0
  8 23  1  0
  9 24  1  0
 11 25  1  0
 11 26  1  0
 11 27  1  0
 13 28  1  0
 14 29  1  1
 15 30  1  0
 15 31  1  0
 15 32  1  0
 16 33  1  0
 16 34  1  0
 17 35  1  0
 17 36  1  0
 18 37  1  0
 18 38  1  0
 19 39  1  0
 19 40  1  0
 19 41  1  0
M  CHG  1  19   1
M  END
>  <score>  (9) 
-7.06

$$$$
