=
     RDKit          3D

 28 29  0  0  0  0  0  0  0  0999 V2000
    1.5360   67.2000   66.4980 O   0  0  0  0  0  0  0  0  0  0  0  0
    0.8580   68.1750   66.7990 C   0  0  0  0  0  0  0  0  0  0  0  0
    1.3520   69.3680   67.3000 N   0  0  0  0  0  0  0  0  0  0  0  0
   -0.5900   68.1410   66.6430 C   0  0  0  0  0  0  0  0  0  0  0  0
   -1.4560   68.7880   65.7310 C   0  0  0  0  0  0  0  0  0  0  0  0
   -2.7390   68.4830   65.9310 N   0  0  0  0  0  0  0  0  0  0  0  0
   -2.7410   67.6070   67.0010 O   0  0  0  0  0  0  0  0  0  0  0  0
   -1.4630   67.4040   67.4220 C   0  0  0  0  0  0  0  0  0  0  0  0
   -1.2940   66.4840   68.5650 C   0  0  0  0  0  0  0  0  0  0  0  0
    2.7020   69.7010   67.5530 C   0  0  0  0  0  0  0  0  0  0  0  0
    3.7410   69.5250   66.6390 C   0  0  0  0  0  0  0  0  0  0  0  0
    5.0540   69.8840   66.9730 C   0  0  0  0  0  0  0  0  0  0  0  0
    5.3530   70.4210   68.2300 C   0  0  0  0  0  0  0  0  0  0  0  0
    4.3070   70.6050   69.1440 C   0  0  0  0  0  0  0  0  0  0  0  0
    2.9980   70.2470   68.8090 C   0  0  0  0  0  0  0  0  0  0  0  0
    6.7640   70.8290   68.5810 C   0  0  0  0  0  0  0  0  0  0  0  0
    7.0940   70.5460   69.8720 F   0  0  0  0  0  0  0  0  0  0  0  0
    7.7060   70.2130   67.8140 F   0  0  0  0  0  0  0  0  0  0  0  0
    6.9680   72.1660   68.4270 F   0  0  0  0  0  0  0  0  0  0  0  0
    0.6554   70.0963   67.5127 H   0  0  0  0  0  0  0  0  0  0  0  0
   -1.1085   69.4700   64.9410 H   0  0  0  0  0  0  0  0  0  0  0  0
   -1.3971   67.0450   69.5056 H   0  0  0  0  0  0  0  0  0  0  0  0
   -2.0629   65.6986   68.5204 H   0  0  0  0  0  0  0  0  0  0  0  0
   -0.2962   66.0232   68.5204 H   0  0  0  0  0  0  0  0  0  0  0  0
    3.5278   69.1005   65.6469 H   0  0  0  0  0  0  0  0  0  0  0  0
    5.8596   69.7418   66.2376 H   0  0  0  0  0  0  0  0  0  0  0  0
    4.5179   71.0351   70.1342 H   0  0  0  0  0  0  0  0  0  0  0  0
    2.1901   70.3958   69.5406 H   0  0  0  0  0  0  0  0  0  0  0  0
  2  1  2  0
  3  2  1  0
  4  2  1  0
  5  4  1  0
  6  5  2  0
  7  6  1  0
  8  7  1  0
  8  4  2  0
  9  8  1  0
 10  3  1  0
 11 10  2  0
 12 11  1  0
 13 12  2  0
 14 13  1  0
 15 14  2  0
 15 10  1  0
 16 13  1  0
 17 16  1  0
 18 16  1  0
 19 16  1  0
  3 20  1  0
  5 21  1  0
  9 22  1  0
  9 23  1  0
  9 24  1  0
 11 25  1  0
 12 26  1  0
 14 27  1  0
 15 28  1  0
M  END
>  <score>  (1) 
-9.769

$$$$
=
     RDKit          3D

 28 29  0  0  0  0  0  0  0  0999 V2000
    4.1740   67.7600   64.6190 O   0  0  0  0  0  0  0  0  0  0  0  0
    3.2800   68.5610   64.8620 C   0  0  0  0  0  0  0  0  0  0  0  0
    3.3460   69.5670   65.8120 N   0  0  0  0  0  0  0  0  0  0  0  0
    2.0200   68.5030   64.1330 C   0  0  0  0  0  0  0  0  0  0  0  0
    0.6810   68.3810   64.5700 C   0  0  0  0  0  0  0  0  0  0  0  0
   -0.1930   68.3660   63.5630 N   0  0  0  0  0  0  0  0  0  0  0  0
    0.5730   68.4850   62.4170 O   0  0  0  0  0  0  0  0  0  0  0  0
    1.8870   68.5670   62.7580 C   0  0  0  0  0  0  0  0  0  0  0  0
    2.8410   68.7010   61.6380 C   0  0  0  0  0  0  0  0  0  0  0  0
    4.4290   69.8750   66.6650 C   0  0  0  0  0  0  0  0  0  0  0  0
    5.7660   69.8970   66.2650 C   0  0  0  0  0  0  0  0  0  0  0  0
    6.7790   70.2140   67.1780 C   0  0  0  0  0  0  0  0  0  0  0  0
    6.4760   70.5110   68.5120 C   0  0  0  0  0  0  0  0  0  0  0  0
    5.1330   70.4980   68.9110 C   0  0  0  0  0  0  0  0  0  0  0  0
    4.1230   70.1810   67.9980 C   0  0  0  0  0  0  0  0  0  0  0  0
    7.5670   70.8750   69.4900 C   0  0  0  0  0  0  0  0  0  0  0  0
    8.0740   72.1220   69.2810 F   0  0  0  0  0  0  0  0  0  0  0  0
    7.1530   70.8560   70.7880 F   0  0  0  0  0  0  0  0  0  0  0  0
    8.6280   70.0240   69.4210 F   0  0  0  0  0  0  0  0  0  0  0  0
    2.5085   70.1589   65.9074 H   0  0  0  0  0  0  0  0  0  0  0  0
    0.3909   68.3064   65.6284 H   0  0  0  0  0  0  0  0  0  0  0  0
    3.8564   68.8436   62.0363 H   0  0  0  0  0  0  0  0  0  0  0  0
    2.8134   67.7902   61.0219 H   0  0  0  0  0  0  0  0  0  0  0  0
    2.5635   69.5690   61.0219 H   0  0  0  0  0  0  0  0  0  0  0  0
    6.0264   69.6630   65.2222 H   0  0  0  0  0  0  0  0  0  0  0  0
    7.8265   70.2299   66.8427 H   0  0  0  0  0  0  0  0  0  0  0  0
    4.8711   70.7393   69.9517 H   0  0  0  0  0  0  0  0  0  0  0  0
    3.0744   70.1716   68.3302 H   0  0  0  0  0  0  0  0  0  0  0  0
  2  1  2  0
  3  2  1  0
  4  2  1  0
  5  4  1  0
  6  5  2  0
  7  6  1  0
  8  7  1  0
  8  4  2  0
  9  8  1  0
 10  3  1  0
 11 10  2  0
 12 11  1  0
 13 12  2  0
 14 13  1  0
 15 14  2  0
 15 10  1  0
 16 13  1  0
 17 16  1  0
 18 16  1  0
 19 16  1  0
  3 20  1  0
  5 21  1  0
  9 22  1  0
  9 23  1  0
  9 24  1  0
 11 25  1  0
 12 26  1  0
 14 27  1  0
 15 28  1  0
M  END
>  <score>  (2) 
-9.596

$$$$
=
     RDKit          3D

 28 29  0  0  0  0  0  0  0  0999 V2000
    3.8740   67.5060   64.9340 O   0  0  0  0  0  0  0  0  0  0  0  0
    3.7050   68.5930   64.3940 C   0  0  0  0  0  0  0  0  0  0  0  0
    4.1540   69.8070   64.8870 N   0  0  0  0  0  0  0  0  0  0  0  0
    2.9800   68.6850   63.1350 C   0  0  0  0  0  0  0  0  0  0  0  0
    3.4230   68.7490   61.7930 C   0  0  0  0  0  0  0  0  0  0  0  0
    2.4190   68.8270   60.9200 N   0  0  0  0  0  0  0  0  0  0  0  0
    1.2690   68.8120   61.6870 O   0  0  0  0  0  0  0  0  0  0  0  0
    1.6040   68.7270   63.0030 C   0  0  0  0  0  0  0  0  0  0  0  0
    0.4790   68.6990   63.9590 C   0  0  0  0  0  0  0  0  0  0  0  0
    4.8870   70.0370   66.0730 C   0  0  0  0  0  0  0  0  0  0  0  0
    4.3380   70.0100   67.3550 C   0  0  0  0  0  0  0  0  0  0  0  0
    5.1390   70.2500   68.4790 C   0  0  0  0  0  0  0  0  0  0  0  0
    6.5040   70.5250   68.3420 C   0  0  0  0  0  0  0  0  0  0  0  0
    7.0560   70.5430   67.0550 C   0  0  0  0  0  0  0  0  0  0  0  0
    6.2550   70.3040   65.9340 C   0  0  0  0  0  0  0  0  0  0  0  0
    7.3710   70.7600   69.5560 C   0  0  0  0  0  0  0  0  0  0  0  0
    8.4380   69.9160   69.6180 F   0  0  0  0  0  0  0  0  0  0  0  0
    7.8900   72.0180   69.6090 F   0  0  0  0  0  0  0  0  0  0  0  0
    6.6880   70.5850   70.7210 F   0  0  0  0  0  0  0  0  0  0  0  0
    3.9272   70.6389   64.3236 H   0  0  0  0  0  0  0  0  0  0  0  0
    4.4835   68.7358   61.5011 H   0  0  0  0  0  0  0  0  0  0  0  0
    0.8709   68.7088   64.9868 H   0  0  0  0  0  0  0  0  0  0  0  0
   -0.1583   69.5816   63.8012 H   0  0  0  0  0  0  0  0  0  0  0  0
   -0.1136   67.7858   63.8012 H   0  0  0  0  0  0  0  0  0  0  0  0
    3.2664   69.7983   67.4846 H   0  0  0  0  0  0  0  0  0  0  0  0
    4.6889   70.2219   69.4823 H   0  0  0  0  0  0  0  0  0  0  0  0
    8.1291   70.7469   66.9248 H   0  0  0  0  0  0  0  0  0  0  0  0
    6.7048   70.3259   64.9304 H   0  0  0  0  0  0  0  0  0  0  0  0
  2  1  2  0
  3  2  1  0
  4  2  1  0
  5  4  1  0
  6  5  2  0
  7  6  1  0
  8  7  1  0
  8  4  2  0
  9  8  1  0
 10  3  1  0
 11 10  2  0
 12 11  1  0
 13 12  2  0
 14 13  1  0
 15 14  2  0
 15 10  1  0
 16 13  1  0
 17 16  1  0
 18 16  1  0
 19 16  1  0
  3 20  1  0
  5 21  1  0
  9 22  1  0
  9 23  1  0
  9 24  1  0
 11 25  1  0
 12 26  1  0
 14 27  1  0
 15 28  1  0
M  END
>  <score>  (3) 
-8.382

$$$$
=
     RDKit          3D

 28 29  0  0  0  0  0  0  0  0999 V2000
    3.0260   70.6090   69.4580 O   0  0  0  0  0  0  0  0  0  0  0  0
    3.6060   70.1900   68.4630 C   0  0  0  0  0  0  0  0  0  0  0  0
    3.0140   69.4740   67.4360 N   0  0  0  0  0  0  0  0  0  0  0  0
    5.0320   70.4280   68.2880 C   0  0  0  0  0  0  0  0  0  0  0  0
    6.0320   70.8760   69.1830 C   0  0  0  0  0  0  0  0  0  0  0  0
    7.2350   70.9610   68.6140 N   0  0  0  0  0  0  0  0  0  0  0  0
    7.0470   70.5570   67.3050 O   0  0  0  0  0  0  0  0  0  0  0  0
    5.7380   70.2410   67.1130 C   0  0  0  0  0  0  0  0  0  0  0  0
    5.3720   69.7860   65.7560 C   0  0  0  0  0  0  0  0  0  0  0  0
    1.6570   69.0970   67.3210 C   0  0  0  0  0  0  0  0  0  0  0  0
    0.5800   69.9300   67.6220 C   0  0  0  0  0  0  0  0  0  0  0  0
   -0.7370   69.4740   67.4790 C   0  0  0  0  0  0  0  0  0  0  0  0
   -1.0020   68.1730   67.0360 C   0  0  0  0  0  0  0  0  0  0  0  0
    0.0810   67.3390   66.7250 C   0  0  0  0  0  0  0  0  0  0  0  0
    1.3950   67.7970   66.8690 C   0  0  0  0  0  0  0  0  0  0  0  0
   -2.4210   67.6900   66.8590 C   0  0  0  0  0  0  0  0  0  0  0  0
   -2.5210   66.3320   66.8270 F   0  0  0  0  0  0  0  0  0  0  0  0
   -3.2550   68.0990   67.8560 F   0  0  0  0  0  0  0  0  0  0  0  0
   -2.9770   68.1330   65.6980 F   0  0  0  0  0  0  0  0  0  0  0  0
    3.6345   69.1826   66.6672 H   0  0  0  0  0  0  0  0  0  0  0  0
    5.8378   71.1274   70.2361 H   0  0  0  0  0  0  0  0  0  0  0  0
    4.6841   68.9308   65.8291 H   0  0  0  0  0  0  0  0  0  0  0  0
    4.8799   70.6072   65.2142 H   0  0  0  0  0  0  0  0  0  0  0  0
    6.2795   69.4813   65.2142 H   0  0  0  0  0  0  0  0  0  0  0  0
    0.7662   70.9550   67.9751 H   0  0  0  0  0  0  0  0  0  0  0  0
   -1.5736   70.1471   67.7180 H   0  0  0  0  0  0  0  0  0  0  0  0
   -0.1039   66.3162   66.3648 H   0  0  0  0  0  0  0  0  0  0  0  0
    2.2331   67.1280   66.6242 H   0  0  0  0  0  0  0  0  0  0  0  0
  2  1  2  0
  3  2  1  0
  4  2  1  0
  5  4  1  0
  6  5  2  0
  7  6  1  0
  8  7  1  0
  8  4  2  0
  9  8  1  0
 10  3  1  0
 11 10  2  0
 12 11  1  0
 13 12  2  0
 14 13  1  0
 15 14  2  0
 15 10  1  0
 16 13  1  0
 17 16  1  0
 18 16  1  0
 19 16  1  0
  3 20  1  0
  5 21  1  0
  9 22  1  0
  9 23  1  0
  9 24  1  0
 11 25  1  0
 12 26  1  0
 14 27  1  0
 15 28  1  0
M  END
>  <score>  (4) 
-7.76

$$$$
=
     RDKit          3D

 28 29  0  0  0  0  0  0  0  0999 V2000
    1.9480   68.8140   67.8220 O   0  0  0  0  0  0  0  0  0  0  0  0
    1.3940   67.7320   67.6730 C   0  0  0  0  0  0  0  0  0  0  0  0
    1.2830   67.0490   66.4730 N   0  0  0  0  0  0  0  0  0  0  0  0
    0.7780   67.0580   68.8080 C   0  0  0  0  0  0  0  0  0  0  0  0
    1.3070   66.6170   70.0440 C   0  0  0  0  0  0  0  0  0  0  0  0
    0.3910   66.0350   70.8200 N   0  0  0  0  0  0  0  0  0  0  0  0
   -0.7850   66.0860   70.0940 O   0  0  0  0  0  0  0  0  0  0  0  0
   -0.5530   66.6950   68.9000 C   0  0  0  0  0  0  0  0  0  0  0  0
   -1.7190   66.8300   68.0030 C   0  0  0  0  0  0  0  0  0  0  0  0
    1.7810   67.4420   65.2110 C   0  0  0  0  0  0  0  0  0  0  0  0
    1.1300   68.3230   64.3470 C   0  0  0  0  0  0  0  0  0  0  0  0
    1.6970   68.6590   63.1100 C   0  0  0  0  0  0  0  0  0  0  0  0
    2.9250   68.1170   62.7120 C   0  0  0  0  0  0  0  0  0  0  0  0
    3.5820   67.2400   63.5840 C   0  0  0  0  0  0  0  0  0  0  0  0
    3.0150   66.9050   64.8180 C   0  0  0  0  0  0  0  0  0  0  0  0
    3.5460   68.4990   61.3900 C   0  0  0  0  0  0  0  0  0  0  0  0
    2.6440   69.0130   60.5080 F   0  0  0  0  0  0  0  0  0  0  0  0
    4.5250   69.4370   61.5080 F   0  0  0  0  0  0  0  0  0  0  0  0
    4.1170   67.4340   60.7610 F   0  0  0  0  0  0  0  0  0  0  0  0
    0.7793   66.1511   66.5046 H   0  0  0  0  0  0  0  0  0  0  0  0
    2.3608   66.7408   70.3341 H   0  0  0  0  0  0  0  0  0  0  0  0
   -2.6339   66.9359   68.6044 H   0  0  0  0  0  0  0  0  0  0  0  0
   -1.5923   67.7195   67.3683 H   0  0  0  0  0  0  0  0  0  0  0  0
   -1.7989   65.9351   67.3683 H   0  0  0  0  0  0  0  0  0  0  0  0
    0.1628   68.7579   64.6393 H   0  0  0  0  0  0  0  0  0  0  0  0
    1.1703   69.3576   62.4432 H   0  0  0  0  0  0  0  0  0  0  0  0
    4.5529   66.8106   63.2958 H   0  0  0  0  0  0  0  0  0  0  0  0
    3.5439   66.2116   65.4884 H   0  0  0  0  0  0  0  0  0  0  0  0
  2  1  2  0
  3  2  1  0
  4  2  1  0
  5  4  1  0
  6  5  2  0
  7  6  1  0
  8  7  1  0
  8  4  2  0
  9  8  1  0
 10  3  1  0
 11 10  2  0
 12 11  1  0
 13 12  2  0
 14 13  1  0
 15 14  2  0
 15 10  1  0
 16 13  1  0
 17 16  1  0
 18 16  1  0
 19 16  1  0
  3 20  1  0
  5 21  1  0
  9 22  1  0
  9 23  1  0
  9 24  1  0
 11 25  1  0
 12 26  1  0
 14 27  1  0
 15 28  1  0
M  END
>  <score>  (5) 
-7.463

$$$$
=
     RDKit          3D

 28 29  0  0  0  0  0  0  0  0999 V2000
    1.5340   67.1330   69.8880 O   0  0  0  0  0  0  0  0  0  0  0  0
    0.5990   66.5260   69.3800 C   0  0  0  0  0  0  0  0  0  0  0  0
    0.2400   65.2210   69.6750 N   0  0  0  0  0  0  0  0  0  0  0  0
   -0.2400   67.1700   68.3790 C   0  0  0  0  0  0  0  0  0  0  0  0
   -1.5600   66.9080   67.9440 C   0  0  0  0  0  0  0  0  0  0  0  0
   -1.9650   67.7460   66.9890 N   0  0  0  0  0  0  0  0  0  0  0  0
   -0.8960   68.5970   66.7750 O   0  0  0  0  0  0  0  0  0  0  0  0
    0.1270   68.2540   67.6030 C   0  0  0  0  0  0  0  0  0  0  0  0
    1.3510   69.0750   67.4970 C   0  0  0  0  0  0  0  0  0  0  0  0
    0.8540   64.3480   70.6000 C   0  0  0  0  0  0  0  0  0  0  0  0
    0.3460   64.0590   71.8670 C   0  0  0  0  0  0  0  0  0  0  0  0
    1.0210   63.1790   72.7230 C   0  0  0  0  0  0  0  0  0  0  0  0
    2.2210   62.5750   72.3300 C   0  0  0  0  0  0  0  0  0  0  0  0
    2.7260   62.8580   71.0540 C   0  0  0  0  0  0  0  0  0  0  0  0
    2.0500   63.7370   70.2010 C   0  0  0  0  0  0  0  0  0  0  0  0
    2.9360   61.6080   73.2440 C   0  0  0  0  0  0  0  0  0  0  0  0
    4.2890   61.7680   73.2330 F   0  0  0  0  0  0  0  0  0  0  0  0
    2.5590   61.7260   74.5480 F   0  0  0  0  0  0  0  0  0  0  0  0
    2.7100   60.3100   72.9020 F   0  0  0  0  0  0  0  0  0  0  0  0
   -0.5683   64.8436   69.1601 H   0  0  0  0  0  0  0  0  0  0  0  0
   -2.1856   66.0995   68.3500 H   0  0  0  0  0  0  0  0  0  0  0  0
    1.7165   69.3202   68.5051 H   0  0  0  0  0  0  0  0  0  0  0  0
    2.1241   68.5121   66.9535 H   0  0  0  0  0  0  0  0  0  0  0  0
    1.1235   70.0039   66.9535 H   0  0  0  0  0  0  0  0  0  0  0  0
   -0.5934   64.5266   72.1969 H   0  0  0  0  0  0  0  0  0  0  0  0
    0.6027   62.9600   73.7165 H   0  0  0  0  0  0  0  0  0  0  0  0
    3.6615   62.3852   70.7203 H   0  0  0  0  0  0  0  0  0  0  0  0
    2.4628   63.9512   69.2042 H   0  0  0  0  0  0  0  0  0  0  0  0
  2  1  2  0
  3  2  1  0
  4  2  1  0
  5  4  1  0
  6  5  2  0
  7  6  1  0
  8  7  1  0
  8  4  2  0
  9  8  1  0
 10  3  1  0
 11 10  2  0
 12 11  1  0
 13 12  2  0
 14 13  1  0
 15 14  2  0
 15 10  1  0
 16 13  1  0
 17 16  1  0
 18 16  1  0
 19 16  1  0
  3 20  1  0
  5 21  1  0
  9 22  1  0
  9 23  1  0
  9 24  1  0
 11 25  1  0
 12 26  1  0
 14 27  1  0
 15 28  1  0
M  END
>  <score>  (6) 
-7.378

$$$$
=
     RDKit          3D

 28 29  0  0  0  0  0  0  0  0999 V2000
    1.4020   59.0910   74.5440 O   0  0  0  0  0  0  0  0  0  0  0  0
    2.1120   58.2150   74.0630 C   0  0  0  0  0  0  0  0  0  0  0  0
    3.0810   58.4160   73.0940 N   0  0  0  0  0  0  0  0  0  0  0  0
    1.9750   56.8330   74.5010 C   0  0  0  0  0  0  0  0  0  0  0  0
    2.8000   56.0110   75.3030 C   0  0  0  0  0  0  0  0  0  0  0  0
    2.3040   54.7840   75.4670 N   0  0  0  0  0  0  0  0  0  0  0  0
    1.1130   54.7770   74.7630 O   0  0  0  0  0  0  0  0  0  0  0  0
    0.9200   55.9950   74.1900 C   0  0  0  0  0  0  0  0  0  0  0  0
   -0.3180   56.1510   73.3980 C   0  0  0  0  0  0  0  0  0  0  0  0
    3.4470   59.6360   72.4830 C   0  0  0  0  0  0  0  0  0  0  0  0
    4.5350   60.4180   72.8740 C   0  0  0  0  0  0  0  0  0  0  0  0
    4.8270   61.6170   72.2110 C   0  0  0  0  0  0  0  0  0  0  0  0
    4.0330   62.0600   71.1470 C   0  0  0  0  0  0  0  0  0  0  0  0
    2.9470   61.2700   70.7490 C   0  0  0  0  0  0  0  0  0  0  0  0
    2.6570   60.0740   71.4120 C   0  0  0  0  0  0  0  0  0  0  0  0
    4.3630   63.3410   70.4180 C   0  0  0  0  0  0  0  0  0  0  0  0
    5.5950   63.8290   70.7310 F   0  0  0  0  0  0  0  0  0  0  0  0
    4.3510   63.2050   69.0630 F   0  0  0  0  0  0  0  0  0  0  0  0
    3.4820   64.3400   70.7040 F   0  0  0  0  0  0  0  0  0  0  0  0
    3.5942   57.5790   72.7828 H   0  0  0  0  0  0  0  0  0  0  0  0
    3.7496   56.3477   75.7445 H   0  0  0  0  0  0  0  0  0  0  0  0
   -1.1765   56.2592   74.0771 H   0  0  0  0  0  0  0  0  0  0  0  0
   -0.2372   57.0461   72.7637 H   0  0  0  0  0  0  0  0  0  0  0  0
   -0.4617   55.2639   72.7637 H   0  0  0  0  0  0  0  0  0  0  0  0
    5.1692   60.0897   73.7107 H   0  0  0  0  0  0  0  0  0  0  0  0
    5.6912   62.2178   72.5307 H   0  0  0  0  0  0  0  0  0  0  0  0
    2.3169   61.5935   69.9074 H   0  0  0  0  0  0  0  0  0  0  0  0
    1.7973   59.4688   71.0886 H   0  0  0  0  0  0  0  0  0  0  0  0
  2  1  2  0
  3  2  1  0
  4  2  1  0
  5  4  1  0
  6  5  2  0
  7  6  1  0
  8  7  1  0
  8  4  2  0
  9  8  1  0
 10  3  1  0
 11 10  2  0
 12 11  1  0
 13 12  2  0
 14 13  1  0
 15 14  2  0
 15 10  1  0
 16 13  1  0
 17 16  1  0
 18 16  1  0
 19 16  1  0
  3 20  1  0
  5 21  1  0
  9 22  1  0
  9 23  1  0
  9 24  1  0
 11 25  1  0
 12 26  1  0
 14 27  1  0
 15 28  1  0
M  END
>  <score>  (7) 
-7.334

$$$$
=
     RDKit          3D

 28 29  0  0  0  0  0  0  0  0999 V2000
    2.3820   62.3330   73.7430 O   0  0  0  0  0  0  0  0  0  0  0  0
    2.4660   61.5310   72.8210 C   0  0  0  0  0  0  0  0  0  0  0  0
    1.4690   60.6490   72.4360 N   0  0  0  0  0  0  0  0  0  0  0  0
    3.6840   61.4460   72.0280 C   0  0  0  0  0  0  0  0  0  0  0  0
    4.7060   60.4690   71.9680 C   0  0  0  0  0  0  0  0  0  0  0  0
    5.6650   60.7760   71.0950 N   0  0  0  0  0  0  0  0  0  0  0  0
    5.2830   61.9870   70.5470 O   0  0  0  0  0  0  0  0  0  0  0  0
    4.1060   62.3830   71.1020 C   0  0  0  0  0  0  0  0  0  0  0  0
    3.5590   63.6670   70.6180 C   0  0  0  0  0  0  0  0  0  0  0  0
    0.1840   60.5020   73.0040 C   0  0  0  0  0  0  0  0  0  0  0  0
   -0.8360   61.4490   72.9010 C   0  0  0  0  0  0  0  0  0  0  0  0
   -2.0830   61.2210   73.4970 C   0  0  0  0  0  0  0  0  0  0  0  0
   -2.3330   60.0440   74.2120 C   0  0  0  0  0  0  0  0  0  0  0  0
   -1.3120   59.0900   74.3070 C   0  0  0  0  0  0  0  0  0  0  0  0
   -0.0670   59.3190   73.7120 C   0  0  0  0  0  0  0  0  0  0  0  0
   -3.6860   59.7890   74.8340 C   0  0  0  0  0  0  0  0  0  0  0  0
   -4.6930   60.4600   74.2080 F   0  0  0  0  0  0  0  0  0  0  0  0
   -4.0460   58.4760   74.8140 F   0  0  0  0  0  0  0  0  0  0  0  0
   -3.7350   60.1740   76.1390 F   0  0  0  0  0  0  0  0  0  0  0  0
    1.6905   60.0288   71.6440 H   0  0  0  0  0  0  0  0  0  0  0  0
    4.7086   59.5532   72.5774 H   0  0  0  0  0  0  0  0  0  0  0  0
    3.2900   64.2983   71.4777 H   0  0  0  0  0  0  0  0  0  0  0  0
    4.3161   64.1814   70.0079 H   0  0  0  0  0  0  0  0  0  0  0  0
    2.6635   63.4774   70.0079 H   0  0  0  0  0  0  0  0  0  0  0  0
   -0.6591   62.3827   72.3469 H   0  0  0  0  0  0  0  0  0  0  0  0
   -2.8763   61.9770   73.4018 H   0  0  0  0  0  0  0  0  0  0  0  0
   -1.4907   58.1526   74.8542 H   0  0  0  0  0  0  0  0  0  0  0  0
    0.7251   58.5609   73.8010 H   0  0  0  0  0  0  0  0  0  0  0  0
  2  1  2  0
  3  2  1  0
  4  2  1  0
  5  4  1  0
  6  5  2  0
  7  6  1  0
  8  7  1  0
  8  4  2  0
  9  8  1  0
 10  3  1  0
 11 10  2  0
 12 11  1  0
 13 12  2  0
 14 13  1  0
 15 14  2  0
 15 10  1  0
 16 13  1  0
 17 16  1  0
 18 16  1  0
 19 16  1  0
  3 20  1  0
  5 21  1  0
  9 22  1  0
  9 23  1  0
  9 24  1  0
 11 25  1  0
 12 26  1  0
 14 27  1  0
 15 28  1  0
M  END
>  <score>  (8) 
-6.907

$$$$
=
     RDKit          3D

 28 29  0  0  0  0  0  0  0  0999 V2000
    2.2840   57.1050   71.8670 O   0  0  0  0  0  0  0  0  0  0  0  0
    1.6420   57.5340   72.8180 C   0  0  0  0  0  0  0  0  0  0  0  0
    1.5110   58.8720   73.1550 N   0  0  0  0  0  0  0  0  0  0  0  0
    0.9390   56.6180   73.7060 C   0  0  0  0  0  0  0  0  0  0  0  0
   -0.3320   56.0040   73.6140 C   0  0  0  0  0  0  0  0  0  0  0  0
   -0.6040   55.2200   74.6580 N   0  0  0  0  0  0  0  0  0  0  0  0
    0.5100   55.3020   75.4730 O   0  0  0  0  0  0  0  0  0  0  0  0
    1.4260   56.1330   74.9060 C   0  0  0  0  0  0  0  0  0  0  0  0
    2.6820   56.3260   75.6590 C   0  0  0  0  0  0  0  0  0  0  0  0
    2.0670   59.9850   72.4860 C   0  0  0  0  0  0  0  0  0  0  0  0
    1.3370   61.1010   72.0740 C   0  0  0  0  0  0  0  0  0  0  0  0
    1.9690   62.1640   71.4150 C   0  0  0  0  0  0  0  0  0  0  0  0
    3.3440   62.1290   71.1520 C   0  0  0  0  0  0  0  0  0  0  0  0
    4.0770   61.0120   71.5740 C   0  0  0  0  0  0  0  0  0  0  0  0
    3.4440   59.9520   72.2310 C   0  0  0  0  0  0  0  0  0  0  0  0
    4.0280   63.2850   70.4630 C   0  0  0  0  0  0  0  0  0  0  0  0
    5.3190   63.4540   70.8640 F   0  0  0  0  0  0  0  0  0  0  0  0
    4.0750   63.1510   69.1090 F   0  0  0  0  0  0  0  0  0  0  0  0
    3.4050   64.4720   70.7030 F   0  0  0  0  0  0  0  0  0  0  0  0
    0.9430   59.0785   73.9890 H   0  0  0  0  0  0  0  0  0  0  0  0
   -1.0223   56.1569   72.7713 H   0  0  0  0  0  0  0  0  0  0  0  0
    2.4712   56.2936   76.7381 H   0  0  0  0  0  0  0  0  0  0  0  0
    3.3915   55.5263   75.3998 H   0  0  0  0  0  0  0  0  0  0  0  0
    3.1187   57.3018   75.3998 H   0  0  0  0  0  0  0  0  0  0  0  0
    0.2553   61.1465   72.2684 H   0  0  0  0  0  0  0  0  0  0  0  0
    1.3778   63.0366   71.1004 H   0  0  0  0  0  0  0  0  0  0  0  0
    5.1601   60.9684   71.3869 H   0  0  0  0  0  0  0  0  0  0  0  0
    4.0349   59.0813   72.5516 H   0  0  0  0  0  0  0  0  0  0  0  0
  2  1  2  0
  3  2  1  0
  4  2  1  0
  5  4  1  0
  6  5  2  0
  7  6  1  0
  8  7  1  0
  8  4  2  0
  9  8  1  0
 10  3  1  0
 11 10  2  0
 12 11  1  0
 13 12  2  0
 14 13  1  0
 15 14  2  0
 15 10  1  0
 16 13  1  0
 17 16  1  0
 18 16  1  0
 19 16  1  0
  3 20  1  0
  5 21  1  0
  9 22  1  0
  9 23  1  0
  9 24  1  0
 11 25  1  0
 12 26  1  0
 14 27  1  0
 15 28  1  0
M  END
>  <score>  (9) 
-6.811

$$$$
