=
     RDKit          3D

 78 84  0  0  0  0  0  0  0  0999 V2000
   -0.0940   63.8670   70.5800 C   0  0  0  0  0  0  0  0  0  0  0  0
    0.0530   65.2150   70.2620 C   0  0  0  0  0  0  0  0  0  0  0  0
    1.3290   65.7720   70.1090 C   0  0  0  0  0  0  0  0  0  0  0  0
    2.4560   64.9560   70.2880 C   0  0  0  0  0  0  0  0  0  0  0  0
    2.3140   63.5960   70.6000 C   0  0  0  0  0  0  0  0  0  0  0  0
    1.0300   63.0600   70.7480 C   0  0  0  0  0  0  0  0  0  0  0  0
    1.4900   67.2250   69.7170 C   0  0  0  0  0  0  0  0  0  0  0  0
    0.8020   67.5610   68.3850 C   0  0  0  0  0  0  0  0  0  0  0  0
    1.0400   68.9700   68.0170 N   0  0  0  0  0  0  0  0  0  0  0  0
    2.2160   69.1010   67.2220 C   0  0  0  0  0  0  0  0  0  0  0  0
    2.1690   68.7270   65.8740 C   0  0  0  0  0  0  0  0  0  0  0  0
    0.9940   68.0490   65.2200 C   0  0  0  0  0  0  0  0  0  0  0  0
    0.7300   68.6150   63.8210 C   0  0  0  0  0  0  0  0  0  0  0  0
    1.9910   68.8860   62.9870 C   0  0  0  0  0  0  0  0  0  0  0  0
    3.2910   68.4580   63.6650 C   0  0  0  0  0  0  0  0  0  0  0  0
    3.3130   68.9150   65.1010 C   0  0  0  0  0  0  0  0  0  0  0  0
    4.4560   69.4560   65.5710 N   0  0  0  0  0  0  0  0  0  0  0  0
    4.4980   69.8370   66.8560 C   0  0  0  0  0  0  0  0  0  0  0  0
    3.4060   69.6920   67.7420 C   0  0  0  0  0  0  0  0  0  0  0  0
    3.5630   70.1410   69.0800 C   0  0  0  0  0  0  0  0  0  0  0  0
    4.7570   70.7090   69.5230 C   0  0  0  0  0  0  0  0  0  0  0  0
    5.8190   70.8400   68.6410 C   0  0  0  0  0  0  0  0  0  0  0  0
    5.6760   70.4040   67.3230 C   0  0  0  0  0  0  0  0  0  0  0  0
    3.5320   62.7260   70.8000 C   0  0  0  0  0  0  0  0  0  0  0  0
    3.1480   61.3020   71.2110 C   0  0  0  0  0  0  0  0  0  0  0  0
    3.3860   61.0460   72.6470 N   0  0  0  0  0  0  0  0  0  0  0  0
    2.2260   60.6030   73.3440 C   0  0  0  0  0  0  0  0  0  0  0  0
    1.5350   61.5200   74.1490 C   0  0  0  0  0  0  0  0  0  0  0  0
    1.8950   62.9770   74.2780 C   0  0  0  0  0  0  0  0  0  0  0  0
    0.6440   63.8620   74.2480 C   0  0  0  0  0  0  0  0  0  0  0  0
   -0.5300   63.3430   75.0890 C   0  0  0  0  0  0  0  0  0  0  0  0
   -0.2540   62.0240   75.8080 C   0  0  0  0  0  0  0  0  0  0  0  0
    0.4560   61.0560   74.8970 C   0  0  0  0  0  0  0  0  0  0  0  0
    0.0250   59.7780   74.8780 N   0  0  0  0  0  0  0  0  0  0  0  0
    0.6570   58.9060   74.0820 C   0  0  0  0  0  0  0  0  0  0  0  0
    1.7710   59.2530   73.2830 C   0  0  0  0  0  0  0  0  0  0  0  0
    2.3550   58.2460   72.4730 C   0  0  0  0  0  0  0  0  0  0  0  0
    1.8620   56.9420   72.4610 C   0  0  0  0  0  0  0  0  0  0  0  0
    0.7750   56.6170   73.2570 C   0  0  0  0  0  0  0  0  0  0  0  0
    0.1860   57.6000   74.0540 C   0  0  0  0  0  0  0  0  0  0  0  0
   -1.0999   63.4380   70.6989 H   0  0  0  0  0  0  0  0  0  0  0  0
   -0.8383   65.8460   70.1302 H   0  0  0  0  0  0  0  0  0  0  0  0
    3.4623   65.3876   70.1825 H   0  0  0  0  0  0  0  0  0  0  0  0
    0.9070   61.9959   70.9983 H   0  0  0  0  0  0  0  0  0  0  0  0
    1.0524   67.8529   70.5070 H   0  0  0  0  0  0  0  0  0  0  0  0
    2.5658   67.4176   69.5924 H   0  0  0  0  0  0  0  0  0  0  0  0
    1.2043   66.9086   67.5960 H   0  0  0  0  0  0  0  0  0  0  0  0
   -0.2808   67.4020   68.4958 H   0  0  0  0  0  0  0  0  0  0  0  0
    0.4359   69.7556   68.2976 H   0  0  0  0  0  0  0  0  0  0  0  0
    1.2028   66.9722   65.1369 H   0  0  0  0  0  0  0  0  0  0  0  0
    0.1026   68.2270   65.8395 H   0  0  0  0  0  0  0  0  0  0  0  0
    0.1054   67.8944   63.2726 H   0  0  0  0  0  0  0  0  0  0  0  0
    0.2411   69.5893   63.9685 H   0  0  0  0  0  0  0  0  0  0  0  0
    1.9008   68.3393   62.0367 H   0  0  0  0  0  0  0  0  0  0  0  0
    2.0503   69.9754   62.8465 H   0  0  0  0  0  0  0  0  0  0  0  0
    3.3720   67.3615   63.6329 H   0  0  0  0  0  0  0  0  0  0  0  0
    4.1374   68.9167   63.1328 H   0  0  0  0  0  0  0  0  0  0  0  0
    2.7234   70.0384   69.7832 H   0  0  0  0  0  0  0  0  0  0  0  0
    4.8557   71.0505   70.5640 H   0  0  0  0  0  0  0  0  0  0  0  0
    6.7672   71.2843   68.9777 H   0  0  0  0  0  0  0  0  0  0  0  0
    6.5245   70.5132   66.6315 H   0  0  0  0  0  0  0  0  0  0  0  0
    4.0994   62.6848   69.8585 H   0  0  0  0  0  0  0  0  0  0  0  0
    4.1385   63.1644   71.6062 H   0  0  0  0  0  0  0  0  0  0  0  0
    2.0799   61.1486   70.9972 H   0  0  0  0  0  0  0  0  0  0  0  0
    3.7781   60.6062   70.6376 H   0  0  0  0  0  0  0  0  0  0  0  0
    4.3021   61.1755   73.0997 H   0  0  0  0  0  0  0  0  0  0  0  0
    2.4223   63.1333   75.2307 H   0  0  0  0  0  0  0  0  0  0  0  0
    2.5376   63.2534   73.4291 H   0  0  0  0  0  0  0  0  0  0  0  0
    0.9202   64.8583   74.6236 H   0  0  0  0  0  0  0  0  0  0  0  0
    0.2969   63.8733   73.2043 H   0  0  0  0  0  0  0  0  0  0  0  0
   -0.7742   64.1032   75.8456 H   0  0  0  0  0  0  0  0  0  0  0  0
   -1.3582   63.1534   74.3903 H   0  0  0  0  0  0  0  0  0  0  0  0
    0.3757   62.2183   76.6888 H   0  0  0  0  0  0  0  0  0  0  0  0
   -1.2137   61.5815   76.1134 H   0  0  0  0  0  0  0  0  0  0  0  0
    3.2174   58.4998   71.8391 H   0  0  0  0  0  0  0  0  0  0  0  0
    2.3319   56.1774   71.8250 H   0  0  0  0  0  0  0  0  0  0  0  0
    0.3789   55.5908   73.2607 H   0  0  0  0  0  0  0  0  0  0  0  0
   -0.6782   57.3317   74.6794 H   0  0  0  0  0  0  0  0  0  0  0  0
  2  1  2  0
  3  2  1  0
  4  3  2  0
  5  4  1  0
  6  5  2  0
  6  1  1  0
  7  3  1  0
  8  7  1  0
  9  8  1  0
 10  9  1  0
 11 10  1  0
 12 11  1  0
 13 12  1  0
 14 13  1  0
 15 14  1  0
 16 15  1  0
 16 11  2  0
 17 16  1  0
 18 17  2  0
 19 18  1  0
 19 10  2  0
 20 19  1  0
 21 20  2  0
 22 21  1  0
 23 18  1  0
 23 22  2  0
 24  5  1  0
 25 24  1  0
 26 25  1  0
 27 26  1  0
 28 27  1  0
 29 28  1  0
 30 29  1  0
 31 30  1  0
 32 31  1  0
 33 32  1  0
 33 28  2  0
 34 33  1  0
 35 34  2  0
 36 35  1  0
 36 27  2  0
 37 36  1  0
 38 37  2  0
 39 38  1  0
 40 39  2  0
 40 35  1  0
  1 41  1  0
  2 42  1  0
  4 43  1  0
  6 44  1  0
  7 45  1  0
  7 46  1  0
  8 47  1  0
  8 48  1  0
  9 49  1  0
 12 50  1  0
 12 51  1  0
 13 52  1  0
 13 53  1  0
 14 54  1  0
 14 55  1  0
 15 56  1  0
 15 57  1  0
 20 58  1  0
 21 59  1  0
 22 60  1  0
 23 61  1  0
 24 62  1  0
 24 63  1  0
 25 64  1  0
 25 65  1  0
 26 66  1  0
 29 67  1  0
 29 68  1  0
 30 69  1  0
 30 70  1  0
 31 71  1  0
 31 72  1  0
 32 73  1  0
 32 74  1  0
 37 75  1  0
 38 76  1  0
 39 77  1  0
 40 78  1  0
M  END
>  <score>  (1) 
-12.866

$$$$
=
     RDKit          3D

 78 84  0  0  0  0  0  0  0  0999 V2000
   -0.1570   63.8960   70.5860 C   0  0  0  0  0  0  0  0  0  0  0  0
    0.0240   65.2400   70.2680 C   0  0  0  0  0  0  0  0  0  0  0  0
    1.3130   65.7650   70.1160 C   0  0  0  0  0  0  0  0  0  0  0  0
    2.4190   64.9220   70.2950 C   0  0  0  0  0  0  0  0  0  0  0  0
    2.2450   63.5660   70.6070 C   0  0  0  0  0  0  0  0  0  0  0  0
    0.9470   63.0610   70.7550 C   0  0  0  0  0  0  0  0  0  0  0  0
    1.5100   67.2140   69.7240 C   0  0  0  0  0  0  0  0  0  0  0  0
    0.8190   67.5700   68.3980 C   0  0  0  0  0  0  0  0  0  0  0  0
    1.0630   68.9820   68.0470 N   0  0  0  0  0  0  0  0  0  0  0  0
    2.2370   69.1160   67.2500 C   0  0  0  0  0  0  0  0  0  0  0  0
    2.1870   68.7450   65.9000 C   0  0  0  0  0  0  0  0  0  0  0  0
    1.0110   68.0670   65.2480 C   0  0  0  0  0  0  0  0  0  0  0  0
    0.7420   68.6360   63.8510 C   0  0  0  0  0  0  0  0  0  0  0  0
    2.0010   68.9110   63.0150 C   0  0  0  0  0  0  0  0  0  0  0  0
    3.3030   68.4830   63.6880 C   0  0  0  0  0  0  0  0  0  0  0  0
    3.3280   68.9370   65.1240 C   0  0  0  0  0  0  0  0  0  0  0  0
    4.4720   69.4790   65.5930 N   0  0  0  0  0  0  0  0  0  0  0  0
    4.5160   69.8580   66.8780 C   0  0  0  0  0  0  0  0  0  0  0  0
    3.4270   69.7080   67.7670 C   0  0  0  0  0  0  0  0  0  0  0  0
    3.5880   70.1550   69.1050 C   0  0  0  0  0  0  0  0  0  0  0  0
    4.7820   70.7240   69.5470 C   0  0  0  0  0  0  0  0  0  0  0  0
    5.8410   70.8590   68.6620 C   0  0  0  0  0  0  0  0  0  0  0  0
    5.6950   70.4250   67.3430 C   0  0  0  0  0  0  0  0  0  0  0  0
    3.4410   62.6660   70.8080 C   0  0  0  0  0  0  0  0  0  0  0  0
    3.0190   61.2360   71.1610 C   0  0  0  0  0  0  0  0  0  0  0  0
    3.2190   60.9280   72.5920 N   0  0  0  0  0  0  0  0  0  0  0  0
    2.0030   60.6850   73.2950 C   0  0  0  0  0  0  0  0  0  0  0  0
    1.4410   59.4020   73.2370 C   0  0  0  0  0  0  0  0  0  0  0  0
    2.0710   58.2280   72.5360 C   0  0  0  0  0  0  0  0  0  0  0  0
    1.9580   56.9520   73.3780 C   0  0  0  0  0  0  0  0  0  0  0  0
    0.5880   56.7350   74.0350 C   0  0  0  0  0  0  0  0  0  0  0  0
   -0.4300   57.8360   73.7430 C   0  0  0  0  0  0  0  0  0  0  0  0
    0.2060   59.1980   73.8500 C   0  0  0  0  0  0  0  0  0  0  0  0
   -0.4700   60.1580   74.5130 N   0  0  0  0  0  0  0  0  0  0  0  0
    0.0810   61.3750   74.6030 C   0  0  0  0  0  0  0  0  0  0  0  0
    1.3230   61.7100   74.0150 C   0  0  0  0  0  0  0  0  0  0  0  0
    1.8110   63.0300   74.1840 C   0  0  0  0  0  0  0  0  0  0  0  0
    1.0930   63.9880   74.8990 C   0  0  0  0  0  0  0  0  0  0  0  0
   -0.1260   63.6460   75.4620 C   0  0  0  0  0  0  0  0  0  0  0  0
   -0.6150   62.3480   75.3090 C   0  0  0  0  0  0  0  0  0  0  0  0
   -1.1734   63.4923   70.7041 H   0  0  0  0  0  0  0  0  0  0  0  0
   -0.8512   65.8930   70.1355 H   0  0  0  0  0  0  0  0  0  0  0  0
    3.4354   65.3292   70.1894 H   0  0  0  0  0  0  0  0  0  0  0  0
    0.7977   62.0004   71.0058 H   0  0  0  0  0  0  0  0  0  0  0  0
    1.0967   67.8526   70.5186 H   0  0  0  0  0  0  0  0  0  0  0  0
    2.5895   67.3777   69.5901 H   0  0  0  0  0  0  0  0  0  0  0  0
    1.2154   66.9255   67.5996 H   0  0  0  0  0  0  0  0  0  0  0  0
   -0.2642   67.4150   68.5103 H   0  0  0  0  0  0  0  0  0  0  0  0
    0.4640   69.7673   68.3393 H   0  0  0  0  0  0  0  0  0  0  0  0
    1.2210   66.9907   65.1618 H   0  0  0  0  0  0  0  0  0  0  0  0
    0.1213   68.2423   65.8706 H   0  0  0  0  0  0  0  0  0  0  0  0
    0.1173   67.9157   63.3024 H   0  0  0  0  0  0  0  0  0  0  0  0
    0.2513   69.6089   64.0017 H   0  0  0  0  0  0  0  0  0  0  0  0
    1.9092   68.3670   62.0633 H   0  0  0  0  0  0  0  0  0  0  0  0
    2.0585   70.0009   62.8780 H   0  0  0  0  0  0  0  0  0  0  0  0
    3.3851   67.3866   63.6534 H   0  0  0  0  0  0  0  0  0  0  0  0
    4.1476   68.9433   63.1544 H   0  0  0  0  0  0  0  0  0  0  0  0
    2.7504   70.0499   69.8102 H   0  0  0  0  0  0  0  0  0  0  0  0
    4.8829   71.0628   70.5887 H   0  0  0  0  0  0  0  0  0  0  0  0
    6.7893   71.3048   68.9967 H   0  0  0  0  0  0  0  0  0  0  0  0
    6.5417   70.5359   66.6496 H   0  0  0  0  0  0  0  0  0  0  0  0
    4.0316   62.6450   69.8803 H   0  0  0  0  0  0  0  0  0  0  0  0
    4.0349   63.0652   71.6434 H   0  0  0  0  0  0  0  0  0  0  0  0
    1.9533   61.1118   70.9183 H   0  0  0  0  0  0  0  0  0  0  0  0
    3.6475   60.5467   70.5780 H   0  0  0  0  0  0  0  0  0  0  0  0
    4.1467   60.8923   73.0382 H   0  0  0  0  0  0  0  0  0  0  0  0
    1.5615   58.0692   71.5741 H   0  0  0  0  0  0  0  0  0  0  0  0
    3.1373   58.4479   72.3792 H   0  0  0  0  0  0  0  0  0  0  0  0
    2.1647   56.0914   72.7249 H   0  0  0  0  0  0  0  0  0  0  0  0
    2.6826   57.0570   74.1990 H   0  0  0  0  0  0  0  0  0  0  0  0
    0.1783   55.7814   73.6707 H   0  0  0  0  0  0  0  0  0  0  0  0
    0.7553   56.7405   75.1222 H   0  0  0  0  0  0  0  0  0  0  0  0
   -0.8241   57.7014   72.7249 H   0  0  0  0  0  0  0  0  0  0  0  0
   -1.2426   57.7684   74.4813 H   0  0  0  0  0  0  0  0  0  0  0  0
    2.7793   63.3053   73.7405 H   0  0  0  0  0  0  0  0  0  0  0  0
    1.4911   65.0068   75.0151 H   0  0  0  0  0  0  0  0  0  0  0  0
   -0.7044   64.3927   76.0258 H   0  0  0  0  0  0  0  0  0  0  0  0
   -1.5828   62.0869   75.7621 H   0  0  0  0  0  0  0  0  0  0  0  0
  2  1  2  0
  3  2  1  0
  4  3  2  0
  5  4  1  0
  6  5  2  0
  6  1  1  0
  7  3  1  0
  8  7  1  0
  9  8  1  0
 10  9  1  0
 11 10  1  0
 12 11  1  0
 13 12  1  0
 14 13  1  0
 15 14  1  0
 16 15  1  0
 16 11  2  0
 17 16  1  0
 18 17  2  0
 19 18  1  0
 19 10  2  0
 20 19  1  0
 21 20  2  0
 22 21  1  0
 23 18  1  0
 23 22  2  0
 24  5  1  0
 25 24  1  0
 26 25  1  0
 27 26  1  0
 28 27  1  0
 29 28  1  0
 30 29  1  0
 31 30  1  0
 32 31  1  0
 33 32  1  0
 33 28  2  0
 34 33  1  0
 35 34  2  0
 36 35  1  0
 36 27  2  0
 37 36  1  0
 38 37  2  0
 39 38  1  0
 40 39  2  0
 40 35  1  0
  1 41  1  0
  2 42  1  0
  4 43  1  0
  6 44  1  0
  7 45  1  0
  7 46  1  0
  8 47  1  0
  8 48  1  0
  9 49  1  0
 12 50  1  0
 12 51  1  0
 13 52  1  0
 13 53  1  0
 14 54  1  0
 14 55  1  0
 15 56  1  0
 15 57  1  0
 20 58  1  0
 21 59  1  0
 22 60  1  0
 23 61  1  0
 24 62  1  0
 24 63  1  0
 25 64  1  0
 25 65  1  0
 26 66  1  0
 29 67  1  0
 29 68  1  0
 30 69  1  0
 30 70  1  0
 31 71  1  0
 31 72  1  0
 32 73  1  0
 32 74  1  0
 37 75  1  0
 38 76  1  0
 39 77  1  0
 40 78  1  0
M  END
>  <score>  (2) 
-12.772

$$$$
=
     RDKit          3D

 78 84  0  0  0  0  0  0  0  0999 V2000
   -2.4240   66.8250   67.7200 C   0  0  0  0  0  0  0  0  0  0  0  0
   -1.9920   67.7910   66.8130 C   0  0  0  0  0  0  0  0  0  0  0  0
   -0.6820   68.2820   66.8700 C   0  0  0  0  0  0  0  0  0  0  0  0
    0.1870   67.7930   67.8560 C   0  0  0  0  0  0  0  0  0  0  0  0
   -0.2380   66.8150   68.7670 C   0  0  0  0  0  0  0  0  0  0  0  0
   -1.5520   66.3380   68.6920 C   0  0  0  0  0  0  0  0  0  0  0  0
   -0.1980   69.2950   65.8560 C   0  0  0  0  0  0  0  0  0  0  0  0
    0.8170   68.7070   64.8650 C   0  0  0  0  0  0  0  0  0  0  0  0
    1.8550   67.9380   65.5770 N   0  0  0  0  0  0  0  0  0  0  0  0
    3.1350   68.5500   65.4340 C   0  0  0  0  0  0  0  0  0  0  0  0
    3.7850   68.4820   64.1950 C   0  0  0  0  0  0  0  0  0  0  0  0
    3.2950   67.6750   63.0210 C   0  0  0  0  0  0  0  0  0  0  0  0
    3.4640   68.4430   61.7060 C   0  0  0  0  0  0  0  0  0  0  0  0
    4.7850   69.2170   61.5780 C   0  0  0  0  0  0  0  0  0  0  0  0
    5.7430   69.0140   62.7490 C   0  0  0  0  0  0  0  0  0  0  0  0
    5.0080   69.1340   64.0590 C   0  0  0  0  0  0  0  0  0  0  0  0
    5.5940   69.8440   65.0460 N   0  0  0  0  0  0  0  0  0  0  0  0
    4.9640   69.9310   66.2270 C   0  0  0  0  0  0  0  0  0  0  0  0
    3.7230   69.3090   66.4890 C   0  0  0  0  0  0  0  0  0  0  0  0
    3.1450   69.4790   67.7750 C   0  0  0  0  0  0  0  0  0  0  0  0
    3.7760   70.2340   68.7640 C   0  0  0  0  0  0  0  0  0  0  0  0
    4.9950   70.8340   68.4900 C   0  0  0  0  0  0  0  0  0  0  0  0
    5.5710   70.6750   67.2290 C   0  0  0  0  0  0  0  0  0  0  0  0
    0.7000   66.3010   69.8320 C   0  0  0  0  0  0  0  0  0  0  0  0
    0.4420   64.8250   70.1490 C   0  0  0  0  0  0  0  0  0  0  0  0
    0.8340   64.4680   71.5290 N   0  0  0  0  0  0  0  0  0  0  0  0
    1.2820   63.1220   71.6610 C   0  0  0  0  0  0  0  0  0  0  0  0
    2.4830   62.7510   71.0420 C   0  0  0  0  0  0  0  0  0  0  0  0
    3.3840   63.7010   70.2950 C   0  0  0  0  0  0  0  0  0  0  0  0
    4.8570   63.4520   70.6370 C   0  0  0  0  0  0  0  0  0  0  0  0
    5.2660   61.9740   70.6830 C   0  0  0  0  0  0  0  0  0  0  0  0
    4.1280   60.9980   70.3870 C   0  0  0  0  0  0  0  0  0  0  0  0
    2.8670   61.4130   71.1000 C   0  0  0  0  0  0  0  0  0  0  0  0
    2.1580   60.4570   71.7330 N   0  0  0  0  0  0  0  0  0  0  0  0
    1.0280   60.8130   72.3590 C   0  0  0  0  0  0  0  0  0  0  0  0
    0.5290   62.1360   72.3630 C   0  0  0  0  0  0  0  0  0  0  0  0
   -0.6740   62.3960   73.0670 C   0  0  0  0  0  0  0  0  0  0  0  0
   -1.3650   61.3840   73.7330 C   0  0  0  0  0  0  0  0  0  0  0  0
   -0.8660   60.0900   73.7110 C   0  0  0  0  0  0  0  0  0  0  0  0
    0.3220   59.8220   73.0280 C   0  0  0  0  0  0  0  0  0  0  0  0
   -3.4554   66.4461   67.6686 H   0  0  0  0  0  0  0  0  0  0  0  0
   -2.6848   68.1702   66.0473 H   0  0  0  0  0  0  0  0  0  0  0  0
    1.2145   68.1812   67.9157 H   0  0  0  0  0  0  0  0  0  0  0  0
   -1.8982   65.5745   69.4042 H   0  0  0  0  0  0  0  0  0  0  0  0
   -1.0648   69.6685   65.2911 H   0  0  0  0  0  0  0  0  0  0  0  0
    0.3073   70.1010   66.4084 H   0  0  0  0  0  0  0  0  0  0  0  0
    0.2927   68.0420   64.1630 H   0  0  0  0  0  0  0  0  0  0  0  0
    1.2991   69.5325   64.3208 H   0  0  0  0  0  0  0  0  0  0  0  0
    1.6785   67.0730   66.1075 H   0  0  0  0  0  0  0  0  0  0  0  0
    3.8698   66.7388   62.9652 H   0  0  0  0  0  0  0  0  0  0  0  0
    2.2245   67.4674   63.1659 H   0  0  0  0  0  0  0  0  0  0  0  0
    3.4088   67.7207   60.8782 H   0  0  0  0  0  0  0  0  0  0  0  0
    2.6608   69.1942   61.6803 H   0  0  0  0  0  0  0  0  0  0  0  0
    5.2900   68.8883   60.6577 H   0  0  0  0  0  0  0  0  0  0  0  0
    4.5258   70.2859   61.5622 H   0  0  0  0  0  0  0  0  0  0  0  0
    6.1949   68.0136   62.6778 H   0  0  0  0  0  0  0  0  0  0  0  0
    6.5245   69.7870   62.7074 H   0  0  0  0  0  0  0  0  0  0  0  0
    2.1776   69.0045   67.9964 H   0  0  0  0  0  0  0  0  0  0  0  0
    3.3098   70.3522   69.7533 H   0  0  0  0  0  0  0  0  0  0  0  0
    5.5045   71.4310   69.2607 H   0  0  0  0  0  0  0  0  0  0  0  0
    6.5387   71.1555   67.0222 H   0  0  0  0  0  0  0  0  0  0  0  0
    1.7359   66.4143   69.4797 H   0  0  0  0  0  0  0  0  0  0  0  0
    0.5300   66.8838   70.7493 H   0  0  0  0  0  0  0  0  0  0  0  0
   -0.6310   64.6188   70.0220 H   0  0  0  0  0  0  0  0  0  0  0  0
    1.0526   64.2224   69.4604 H   0  0  0  0  0  0  0  0  0  0  0  0
    0.7877   65.1281   72.3183 H   0  0  0  0  0  0  0  0  0  0  0  0
    3.2377   63.5592   69.2140 H   0  0  0  0  0  0  0  0  0  0  0  0
    3.1269   64.7292   70.5895 H   0  0  0  0  0  0  0  0  0  0  0  0
    5.4742   63.9544   69.8776 H   0  0  0  0  0  0  0  0  0  0  0  0
    5.0103   63.8474   71.6520 H   0  0  0  0  0  0  0  0  0  0  0  0
    6.0604   61.8129   69.9394 H   0  0  0  0  0  0  0  0  0  0  0  0
    5.5967   61.7701   71.7121 H   0  0  0  0  0  0  0  0  0  0  0  0
    3.9404   60.9810   69.3032 H   0  0  0  0  0  0  0  0  0  0  0  0
    4.4202   59.9984   70.7411 H   0  0  0  0  0  0  0  0  0  0  0  0
   -1.0721   63.4212   73.0884 H   0  0  0  0  0  0  0  0  0  0  0  0
   -2.2975   61.6100   74.2710 H   0  0  0  0  0  0  0  0  0  0  0  0
   -1.4024   59.2806   74.2280 H   0  0  0  0  0  0  0  0  0  0  0  0
    0.7110   58.7931   73.0196 H   0  0  0  0  0  0  0  0  0  0  0  0
  2  1  2  0
  3  2  1  0
  4  3  2  0
  5  4  1  0
  6  5  2  0
  6  1  1  0
  7  3  1  0
  8  7  1  0
  9  8  1  0
 10  9  1  0
 11 10  1  0
 12 11  1  0
 13 12  1  0
 14 13  1  0
 15 14  1  0
 16 15  1  0
 16 11  2  0
 17 16  1  0
 18 17  2  0
 19 18  1  0
 19 10  2  0
 20 19  1  0
 21 20  2  0
 22 21  1  0
 23 18  1  0
 23 22  2  0
 24  5  1  0
 25 24  1  0
 26 25  1  0
 27 26  1  0
 28 27  1  0
 29 28  1  0
 30 29  1  0
 31 30  1  0
 32 31  1  0
 33 32  1  0
 33 28  2  0
 34 33  1  0
 35 34  2  0
 36 35  1  0
 36 27  2  0
 37 36  1  0
 38 37  2  0
 39 38  1  0
 40 39  2  0
 40 35  1  0
  1 41  1  0
  2 42  1  0
  4 43  1  0
  6 44  1  0
  7 45  1  0
  7 46  1  0
  8 47  1  0
  8 48  1  0
  9 49  1  0
 12 50  1  0
 12 51  1  0
 13 52  1  0
 13 53  1  0
 14 54  1  0
 14 55  1  0
 15 56  1  0
 15 57  1  0
 20 58  1  0
 21 59  1  0
 22 60  1  0
 23 61  1  0
 24 62  1  0
 24 63  1  0
 25 64  1  0
 25 65  1  0
 26 66  1  0
 29 67  1  0
 29 68  1  0
 30 69  1  0
 30 70  1  0
 31 71  1  0
 31 72  1  0
 32 73  1  0
 32 74  1  0
 37 75  1  0
 38 76  1  0
 39 77  1  0
 40 78  1  0
M  END
>  <score>  (3) 
-12.502

$$$$
=
     RDKit          3D

 78 84  0  0  0  0  0  0  0  0999 V2000
    2.7970   63.8650   70.8830 C   0  0  0  0  0  0  0  0  0  0  0  0
    1.9690   63.1830   71.7730 C   0  0  0  0  0  0  0  0  0  0  0  0
    0.6380   63.5790   71.9480 C   0  0  0  0  0  0  0  0  0  0  0  0
    0.1500   64.6750   71.2200 C   0  0  0  0  0  0  0  0  0  0  0  0
    0.9750   65.3600   70.3170 C   0  0  0  0  0  0  0  0  0  0  0  0
    2.3030   64.9480   70.1570 C   0  0  0  0  0  0  0  0  0  0  0  0
   -0.2750   62.8100   72.8780 C   0  0  0  0  0  0  0  0  0  0  0  0
   -0.1820   61.2890   72.6810 C   0  0  0  0  0  0  0  0  0  0  0  0
    0.5040   60.6570   73.8230 N   0  0  0  0  0  0  0  0  0  0  0  0
    0.9630   59.3490   73.4850 C   0  0  0  0  0  0  0  0  0  0  0  0
    0.4090   58.2450   74.1440 C   0  0  0  0  0  0  0  0  0  0  0  0
   -0.5460   58.3380   75.3050 C   0  0  0  0  0  0  0  0  0  0  0  0
   -1.6700   57.3040   75.1880 C   0  0  0  0  0  0  0  0  0  0  0  0
   -1.2220   55.9170   74.7020 C   0  0  0  0  0  0  0  0  0  0  0  0
    0.2860   55.7830   74.5060 C   0  0  0  0  0  0  0  0  0  0  0  0
    0.8300   56.9740   73.7600 C   0  0  0  0  0  0  0  0  0  0  0  0
    1.7250   56.7440   72.7760 N   0  0  0  0  0  0  0  0  0  0  0  0
    2.2390   57.7980   72.1260 C   0  0  0  0  0  0  0  0  0  0  0  0
    1.8970   59.1360   72.4290 C   0  0  0  0  0  0  0  0  0  0  0  0
    2.5000   60.1710   71.6660 C   0  0  0  0  0  0  0  0  0  0  0  0
    3.4090   59.8920   70.6460 C   0  0  0  0  0  0  0  0  0  0  0  0
    3.7360   58.5740   70.3660 C   0  0  0  0  0  0  0  0  0  0  0  0
    3.1490   57.5480   71.1080 C   0  0  0  0  0  0  0  0  0  0  0  0
    0.4460   66.5450   69.5440 C   0  0  0  0  0  0  0  0  0  0  0  0
    1.5230   67.6150   69.3440 C   0  0  0  0  0  0  0  0  0  0  0  0
    1.1090   68.6580   68.3820 N   0  0  0  0  0  0  0  0  0  0  0  0
    2.1250   69.0000   67.4440 C   0  0  0  0  0  0  0  0  0  0  0  0
    1.9340   68.6670   66.0960 C   0  0  0  0  0  0  0  0  0  0  0  0
    0.6850   68.0270   65.5470 C   0  0  0  0  0  0  0  0  0  0  0  0
    0.2670   68.6730   64.2220 C   0  0  0  0  0  0  0  0  0  0  0  0
    1.4190   68.9350   63.2430 C   0  0  0  0  0  0  0  0  0  0  0  0
    2.7930   68.5140   63.7620 C   0  0  0  0  0  0  0  0  0  0  0  0
    2.9710   68.9230   65.2010 C   0  0  0  0  0  0  0  0  0  0  0  0
    4.1410   69.4910   65.5540 N   0  0  0  0  0  0  0  0  0  0  0  0
    4.3150   69.8460   66.8340 C   0  0  0  0  0  0  0  0  0  0  0  0
    3.3420   69.6300   67.8370 C   0  0  0  0  0  0  0  0  0  0  0  0
    3.6340   70.0550   69.1580 C   0  0  0  0  0  0  0  0  0  0  0  0
    4.8480   70.6640   69.4770 C   0  0  0  0  0  0  0  0  0  0  0  0
    5.7940   70.8610   68.4830 C   0  0  0  0  0  0  0  0  0  0  0  0
    5.5160   70.4530   67.1780 C   0  0  0  0  0  0  0  0  0  0  0  0
    3.8423   63.5481   70.7531 H   0  0  0  0  0  0  0  0  0  0  0  0
    2.3641   62.3281   72.3414 H   0  0  0  0  0  0  0  0  0  0  0  0
   -0.8915   65.0002   71.3595 H   0  0  0  0  0  0  0  0  0  0  0  0
    2.9605   65.4815   69.4547 H   0  0  0  0  0  0  0  0  0  0  0  0
    0.0003   63.0473   73.9162 H   0  0  0  0  0  0  0  0  0  0  0  0
   -1.3084   63.1107   72.6507 H   0  0  0  0  0  0  0  0  0  0  0  0
   -1.1967   60.8733   72.5942 H   0  0  0  0  0  0  0  0  0  0  0  0
    0.3932   61.0852   71.7658 H   0  0  0  0  0  0  0  0  0  0  0  0
    0.6346   61.1011   74.7431 H   0  0  0  0  0  0  0  0  0  0  0  0
    0.0076   58.1608   76.2389 H   0  0  0  0  0  0  0  0  0  0  0  0
   -0.9969   59.3413   75.3030 H   0  0  0  0  0  0  0  0  0  0  0  0
   -2.1314   57.1865   76.1796 H   0  0  0  0  0  0  0  0  0  0  0  0
   -2.3662   57.6883   74.4280 H   0  0  0  0  0  0  0  0  0  0  0  0
   -1.5416   55.1708   75.4444 H   0  0  0  0  0  0  0  0  0  0  0  0
   -1.6853   55.7610   73.7166 H   0  0  0  0  0  0  0  0  0  0  0  0
    0.7744   55.7181   75.4895 H   0  0  0  0  0  0  0  0  0  0  0  0
    0.4889   54.8740   73.9207 H   0  0  0  0  0  0  0  0  0  0  0  0
    2.2438   61.2181   71.8849 H   0  0  0  0  0  0  0  0  0  0  0  0
    3.8628   60.7107   70.0683 H   0  0  0  0  0  0  0  0  0  0  0  0
    4.4526   58.3388   69.5652 H   0  0  0  0  0  0  0  0  0  0  0  0
    3.4165   56.5060   70.8784 H   0  0  0  0  0  0  0  0  0  0  0  0
    0.0970   66.2015   68.5590 H   0  0  0  0  0  0  0  0  0  0  0  0
   -0.3785   66.9907   70.1199 H   0  0  0  0  0  0  0  0  0  0  0  0
    1.7321   68.0913   70.3132 H   0  0  0  0  0  0  0  0  0  0  0  0
    2.4169   67.1194   68.9374 H   0  0  0  0  0  0  0  0  0  0  0  0
    0.1764   69.0951   68.3892 H   0  0  0  0  0  0  0  0  0  0  0  0
    0.8742   66.9563   65.3801 H   0  0  0  0  0  0  0  0  0  0  0  0
   -0.1275   68.1688   66.2749 H   0  0  0  0  0  0  0  0  0  0  0  0
   -0.4561   68.0064   63.7293 H   0  0  0  0  0  0  0  0  0  0  0  0
   -0.1537   69.6571   64.4761 H   0  0  0  0  0  0  0  0  0  0  0  0
    1.2160   68.3795   62.3155 H   0  0  0  0  0  0  0  0  0  0  0  0
    1.4603   70.0234   63.0890 H   0  0  0  0  0  0  0  0  0  0  0  0
    2.8885   67.4210   63.6835 H   0  0  0  0  0  0  0  0  0  0  0  0
    3.5654   69.0109   63.1566 H   0  0  0  0  0  0  0  0  0  0  0  0
    2.8859   69.9009   69.9496 H   0  0  0  0  0  0  0  0  0  0  0  0
    5.0529   70.9852   70.5089 H   0  0  0  0  0  0  0  0  0  0  0  0
    6.7572   71.3357   68.7215 H   0  0  0  0  0  0  0  0  0  0  0  0
    6.2724   70.6174   66.3964 H   0  0  0  0  0  0  0  0  0  0  0  0
  2  1  2  0
  3  2  1  0
  4  3  2  0
  5  4  1  0
  6  5  2  0
  6  1  1  0
  7  3  1  0
  8  7  1  0
  9  8  1  0
 10  9  1  0
 11 10  1  0
 12 11  1  0
 13 12  1  0
 14 13  1  0
 15 14  1  0
 16 15  1  0
 16 11  2  0
 17 16  1  0
 18 17  2  0
 19 18  1  0
 19 10  2  0
 20 19  1  0
 21 20  2  0
 22 21  1  0
 23 18  1  0
 23 22  2  0
 24  5  1  0
 25 24  1  0
 26 25  1  0
 27 26  1  0
 28 27  1  0
 29 28  1  0
 30 29  1  0
 31 30  1  0
 32 31  1  0
 33 32  1  0
 33 28  2  0
 34 33  1  0
 35 34  2  0
 36 35  1  0
 36 27  2  0
 37 36  1  0
 38 37  2  0
 39 38  1  0
 40 39  2  0
 40 35  1  0
  1 41  1  0
  2 42  1  0
  4 43  1  0
  6 44  1  0
  7 45  1  0
  7 46  1  0
  8 47  1  0
  8 48  1  0
  9 49  1  0
 12 50  1  0
 12 51  1  0
 13 52  1  0
 13 53  1  0
 14 54  1  0
 14 55  1  0
 15 56  1  0
 15 57  1  0
 20 58  1  0
 21 59  1  0
 22 60  1  0
 23 61  1  0
 24 62  1  0
 24 63  1  0
 25 64  1  0
 25 65  1  0
 26 66  1  0
 29 67  1  0
 29 68  1  0
 30 69  1  0
 30 70  1  0
 31 71  1  0
 31 72  1  0
 32 73  1  0
 32 74  1  0
 37 75  1  0
 38 76  1  0
 39 77  1  0
 40 78  1  0
M  END
>  <score>  (4) 
-12.32

$$$$
=
     RDKit          3D

 78 84  0  0  0  0  0  0  0  0999 V2000
   -1.9910   66.4610   67.7870 C   0  0  0  0  0  0  0  0  0  0  0  0
   -1.6080   67.5900   67.0660 C   0  0  0  0  0  0  0  0  0  0  0  0
   -0.4080   68.2470   67.3630 C   0  0  0  0  0  0  0  0  0  0  0  0
    0.3990   67.7580   68.4000 C   0  0  0  0  0  0  0  0  0  0  0  0
    0.0240   66.6170   69.1240 C   0  0  0  0  0  0  0  0  0  0  0  0
   -1.1800   65.9750   68.8110 C   0  0  0  0  0  0  0  0  0  0  0  0
    0.0320   69.4450   66.5490 C   0  0  0  0  0  0  0  0  0  0  0  0
    0.8960   69.0580   65.3400 C   0  0  0  0  0  0  0  0  0  0  0  0
    1.9550   68.1110   65.7380 N   0  0  0  0  0  0  0  0  0  0  0  0
    3.2500   68.6670   65.5160 C   0  0  0  0  0  0  0  0  0  0  0  0
    3.8320   68.5440   64.2490 C   0  0  0  0  0  0  0  0  0  0  0  0
    3.2530   67.7310   63.1210 C   0  0  0  0  0  0  0  0  0  0  0  0
    3.3850   68.4600   61.7810 C   0  0  0  0  0  0  0  0  0  0  0  0
    4.7270   69.1770   61.5680 C   0  0  0  0  0  0  0  0  0  0  0  0
    5.7350   68.9620   62.6960 C   0  0  0  0  0  0  0  0  0  0  0  0
    5.0720   69.1420   64.0370 C   0  0  0  0  0  0  0  0  0  0  0  0
    5.7350   69.8510   64.9750 N   0  0  0  0  0  0  0  0  0  0  0  0
    5.1690   69.9910   66.1830 C   0  0  0  0  0  0  0  0  0  0  0  0
    3.9190   69.4250   66.5220 C   0  0  0  0  0  0  0  0  0  0  0  0
    3.4140   69.6480   67.8300 C   0  0  0  0  0  0  0  0  0  0  0  0
    4.1230   70.4000   68.7680 C   0  0  0  0  0  0  0  0  0  0  0  0
    5.3500   70.9440   68.4180 C   0  0  0  0  0  0  0  0  0  0  0  0
    5.8550   70.7320   67.1350 C   0  0  0  0  0  0  0  0  0  0  0  0
    0.8940   66.1020   70.2460 C   0  0  0  0  0  0  0  0  0  0  0  0
    0.3970   64.7520   70.7720 C   0  0  0  0  0  0  0  0  0  0  0  0
    1.2480   64.2240   71.8590 N   0  0  0  0  0  0  0  0  0  0  0  0
    1.4650   62.8180   71.7770 C   0  0  0  0  0  0  0  0  0  0  0  0
    0.7440   61.9770   72.6350 C   0  0  0  0  0  0  0  0  0  0  0  0
   -0.3100   62.4500   73.6030 C   0  0  0  0  0  0  0  0  0  0  0  0
   -1.5300   61.5230   73.5910 C   0  0  0  0  0  0  0  0  0  0  0  0
   -1.1990   60.0250   73.5790 C   0  0  0  0  0  0  0  0  0  0  0  0
    0.2960   59.7120   73.5720 C   0  0  0  0  0  0  0  0  0  0  0  0
    1.0280   60.6130   72.6110 C   0  0  0  0  0  0  0  0  0  0  0  0
    1.9450   60.0530   71.7970 N   0  0  0  0  0  0  0  0  0  0  0  0
    2.6100   60.8470   70.9480 C   0  0  0  0  0  0  0  0  0  0  0  0
    2.4180   62.2460   70.8840 C   0  0  0  0  0  0  0  0  0  0  0  0
    3.1750   62.9850   69.9390 C   0  0  0  0  0  0  0  0  0  0  0  0
    4.0950   62.3640   69.0950 C   0  0  0  0  0  0  0  0  0  0  0  0
    4.2770   60.9920   69.1760 C   0  0  0  0  0  0  0  0  0  0  0  0
    3.5330   60.2520   70.0970 C   0  0  0  0  0  0  0  0  0  0  0  0
   -2.9361   65.9518   67.5474 H   0  0  0  0  0  0  0  0  0  0  0  0
   -2.2525   67.9675   66.2584 H   0  0  0  0  0  0  0  0  0  0  0  0
    1.3373   68.2754   68.6486 H   0  0  0  0  0  0  0  0  0  0  0  0
   -1.4875   65.0827   69.3760 H   0  0  0  0  0  0  0  0  0  0  0  0
   -0.8632   69.9719   66.1870 H   0  0  0  0  0  0  0  0  0  0  0  0
    0.6444   70.0830   67.2031 H   0  0  0  0  0  0  0  0  0  0  0  0
    0.2589   68.5874   64.5767 H   0  0  0  0  0  0  0  0  0  0  0  0
    1.3671   69.9664   64.9365 H   0  0  0  0  0  0  0  0  0  0  0  0
    1.7822   67.1723   66.1251 H   0  0  0  0  0  0  0  0  0  0  0  0
    3.7875   66.7715   63.0605 H   0  0  0  0  0  0  0  0  0  0  0  0
    2.1838   67.5705   63.3236 H   0  0  0  0  0  0  0  0  0  0  0  0
    3.2599   67.7213   60.9756 H   0  0  0  0  0  0  0  0  0  0  0  0
    2.6115   69.2421   61.7760 H   0  0  0  0  0  0  0  0  0  0  0  0
    5.1716   68.8072   60.6323 H   0  0  0  0  0  0  0  0  0  0  0  0
    4.5095   70.2549   61.5380 H   0  0  0  0  0  0  0  0  0  0  0  0
    6.1429   67.9427   62.6277 H   0  0  0  0  0  0  0  0  0  0  0  0
    6.5435   69.7012   62.5966 H   0  0  0  0  0  0  0  0  0  0  0  0
    2.4412   69.2181   68.1107 H   0  0  0  0  0  0  0  0  0  0  0  0
    3.7124   70.5598   69.7759 H   0  0  0  0  0  0  0  0  0  0  0  0
    5.9207   71.5383   69.1468 H   0  0  0  0  0  0  0  0  0  0  0  0
    6.8298   71.1668   66.8689 H   0  0  0  0  0  0  0  0  0  0  0  0
    1.9225   65.9834   69.8743 H   0  0  0  0  0  0  0  0  0  0  0  0
    0.8554   66.8278   71.0717 H   0  0  0  0  0  0  0  0  0  0  0  0
   -0.6271   64.8767   71.1537 H   0  0  0  0  0  0  0  0  0  0  0  0
    0.4316   64.0339   69.9395 H   0  0  0  0  0  0  0  0  0  0  0  0
    1.6455   64.8148   72.6033 H   0  0  0  0  0  0  0  0  0  0  0  0
    0.1165   62.4686   74.6168 H   0  0  0  0  0  0  0  0  0  0  0  0
   -0.6345   63.4564   73.3000 H   0  0  0  0  0  0  0  0  0  0  0  0
   -2.1291   61.7340   74.4891 H   0  0  0  0  0  0  0  0  0  0  0  0
   -2.0667   61.7293   72.6533 H   0  0  0  0  0  0  0  0  0  0  0  0
   -1.6428   59.5669   74.4752 H   0  0  0  0  0  0  0  0  0  0  0  0
   -1.6104   59.6188   72.6432 H   0  0  0  0  0  0  0  0  0  0  0  0
    0.7001   59.8605   74.5843 H   0  0  0  0  0  0  0  0  0  0  0  0
    0.4358   58.6687   73.2526 H   0  0  0  0  0  0  0  0  0  0  0  0
    3.0329   64.0736   69.8704 H   0  0  0  0  0  0  0  0  0  0  0  0
    4.6717   62.9580   68.3707 H   0  0  0  0  0  0  0  0  0  0  0  0
    5.0026   60.4899   68.5192 H   0  0  0  0  0  0  0  0  0  0  0  0
    3.6824   59.1635   70.1505 H   0  0  0  0  0  0  0  0  0  0  0  0
  2  1  2  0
  3  2  1  0
  4  3  2  0
  5  4  1  0
  6  5  2  0
  6  1  1  0
  7  3  1  0
  8  7  1  0
  9  8  1  0
 10  9  1  0
 11 10  1  0
 12 11  1  0
 13 12  1  0
 14 13  1  0
 15 14  1  0
 16 15  1  0
 16 11  2  0
 17 16  1  0
 18 17  2  0
 19 18  1  0
 19 10  2  0
 20 19  1  0
 21 20  2  0
 22 21  1  0
 23 18  1  0
 23 22  2  0
 24  5  1  0
 25 24  1  0
 26 25  1  0
 27 26  1  0
 28 27  1  0
 29 28  1  0
 30 29  1  0
 31 30  1  0
 32 31  1  0
 33 32  1  0
 33 28  2  0
 34 33  1  0
 35 34  2  0
 36 35  1  0
 36 27  2  0
 37 36  1  0
 38 37  2  0
 39 38  1  0
 40 39  2  0
 40 35  1  0
  1 41  1  0
  2 42  1  0
  4 43  1  0
  6 44  1  0
  7 45  1  0
  7 46  1  0
  8 47  1  0
  8 48  1  0
  9 49  1  0
 12 50  1  0
 12 51  1  0
 13 52  1  0
 13 53  1  0
 14 54  1  0
 14 55  1  0
 15 56  1  0
 15 57  1  0
 20 58  1  0
 21 59  1  0
 22 60  1  0
 23 61  1  0
 24 62  1  0
 24 63  1  0
 25 64  1  0
 25 65  1  0
 26 66  1  0
 29 67  1  0
 29 68  1  0
 30 69  1  0
 30 70  1  0
 31 71  1  0
 31 72  1  0
 32 73  1  0
 32 74  1  0
 37 75  1  0
 38 76  1  0
 39 77  1  0
 40 78  1  0
M  END
>  <score>  (5) 
-12.173

$$$$
=
     RDKit          3D

 78 84  0  0  0  0  0  0  0  0999 V2000
    4.7900   63.2780   63.7390 C   0  0  0  0  0  0  0  0  0  0  0  0
    4.8240   64.5590   63.1930 C   0  0  0  0  0  0  0  0  0  0  0  0
    4.3110   65.6480   63.9080 C   0  0  0  0  0  0  0  0  0  0  0  0
    3.7600   65.4310   65.1800 C   0  0  0  0  0  0  0  0  0  0  0  0
    3.7310   64.1450   65.7390 C   0  0  0  0  0  0  0  0  0  0  0  0
    4.2480   63.0700   65.0070 C   0  0  0  0  0  0  0  0  0  0  0  0
    4.3900   67.0470   63.3360 C   0  0  0  0  0  0  0  0  0  0  0  0
    5.1060   68.0330   64.2710 C   0  0  0  0  0  0  0  0  0  0  0  0
    4.3350   69.2840   64.3990 N   0  0  0  0  0  0  0  0  0  0  0  0
    3.8810   69.4720   65.7370 C   0  0  0  0  0  0  0  0  0  0  0  0
    2.5890   69.0530   66.0800 C   0  0  0  0  0  0  0  0  0  0  0  0
    1.5710   68.5420   65.0940 C   0  0  0  0  0  0  0  0  0  0  0  0
    0.8030   67.3410   65.6560 C   0  0  0  0  0  0  0  0  0  0  0  0
    0.4100   67.4630   67.1360 C   0  0  0  0  0  0  0  0  0  0  0  0
    0.7760   68.8030   67.7700 C   0  0  0  0  0  0  0  0  0  0  0  0
    2.1850   69.1930   67.4050 C   0  0  0  0  0  0  0  0  0  0  0  0
    2.9720   69.6900   68.3820 N   0  0  0  0  0  0  0  0  0  0  0  0
    4.2180   70.0700   68.0630 C   0  0  0  0  0  0  0  0  0  0  0  0
    4.7410   69.9840   66.7530 C   0  0  0  0  0  0  0  0  0  0  0  0
    6.0790   70.4080   66.5350 C   0  0  0  0  0  0  0  0  0  0  0  0
    6.8660   70.9020   67.5750 C   0  0  0  0  0  0  0  0  0  0  0  0
    6.3340   70.9830   68.8530 C   0  0  0  0  0  0  0  0  0  0  0  0
    5.0210   70.5680   69.0790 C   0  0  0  0  0  0  0  0  0  0  0  0
    3.1260   63.9180   67.1040 C   0  0  0  0  0  0  0  0  0  0  0  0
    3.7240   62.6850   67.7890 C   0  0  0  0  0  0  0  0  0  0  0  0
    4.1510   62.9640   69.1760 N   0  0  0  0  0  0  0  0  0  0  0  0
    3.2100   62.5360   70.1560 C   0  0  0  0  0  0  0  0  0  0  0  0
    2.3870   63.4960   70.7600 C   0  0  0  0  0  0  0  0  0  0  0  0
    2.3760   64.9580   70.3950 C   0  0  0  0  0  0  0  0  0  0  0  0
    0.9450   65.5000   70.3160 C   0  0  0  0  0  0  0  0  0  0  0  0
    0.0230   65.0460   71.4560 C   0  0  0  0  0  0  0  0  0  0  0  0
    0.6890   64.1210   72.4730 C   0  0  0  0  0  0  0  0  0  0  0  0
    1.5340   63.0830   71.7810 C   0  0  0  0  0  0  0  0  0  0  0  0
    1.4410   61.8080   72.2090 N   0  0  0  0  0  0  0  0  0  0  0  0
    2.1970   60.8790   71.6090 C   0  0  0  0  0  0  0  0  0  0  0  0
    3.1080   61.1760   70.5690 C   0  0  0  0  0  0  0  0  0  0  0  0
    3.8500   60.1080   70.0040 C   0  0  0  0  0  0  0  0  0  0  0  0
    3.7050   58.7970   70.4570 C   0  0  0  0  0  0  0  0  0  0  0  0
    2.8140   58.5260   71.4840 C   0  0  0  0  0  0  0  0  0  0  0  0
    2.0720   59.5670   72.0440 C   0  0  0  0  0  0  0  0  0  0  0  0
    5.1919   62.4278   63.1683 H   0  0  0  0  0  0  0  0  0  0  0  0
    5.2566   64.7160   62.1939 H   0  0  0  0  0  0  0  0  0  0  0  0
    3.3461   66.2791   65.7452 H   0  0  0  0  0  0  0  0  0  0  0  0
    4.2267   62.0564   65.4338 H   0  0  0  0  0  0  0  0  0  0  0  0
    4.9371   67.0064   62.3826 H   0  0  0  0  0  0  0  0  0  0  0  0
    3.3598   67.4079   63.2004 H   0  0  0  0  0  0  0  0  0  0  0  0
    5.2161   67.5735   65.2643 H   0  0  0  0  0  0  0  0  0  0  0  0
    6.0936   68.2681   63.8475 H   0  0  0  0  0  0  0  0  0  0  0  0
    4.1491   69.9359   63.6235 H   0  0  0  0  0  0  0  0  0  0  0  0
    0.8580   69.3478   64.8656 H   0  0  0  0  0  0  0  0  0  0  0  0
    2.1003   68.2202   64.1850 H   0  0  0  0  0  0  0  0  0  0  0  0
   -0.1175   67.2172   65.0666 H   0  0  0  0  0  0  0  0  0  0  0  0
    1.4824   66.4787   65.5861 H   0  0  0  0  0  0  0  0  0  0  0  0
   -0.6788   67.3287   67.2165 H   0  0  0  0  0  0  0  0  0  0  0  0
    0.9747   66.6906   67.6788 H   0  0  0  0  0  0  0  0  0  0  0  0
    0.0815   69.5759   67.4089 H   0  0  0  0  0  0  0  0  0  0  0  0
    0.7049   68.7100   68.8638 H   0  0  0  0  0  0  0  0  0  0  0  0
    6.5043   70.3453   65.5225 H   0  0  0  0  0  0  0  0  0  0  0  0
    7.9000   71.2246   67.3831 H   0  0  0  0  0  0  0  0  0  0  0  0
    6.9427   71.3716   69.6827 H   0  0  0  0  0  0  0  0  0  0  0  0
    4.6089   70.6380   70.0965 H   0  0  0  0  0  0  0  0  0  0  0  0
    3.3169   64.8019   67.7304 H   0  0  0  0  0  0  0  0  0  0  0  0
    2.0461   63.7511   66.9778 H   0  0  0  0  0  0  0  0  0  0  0  0
    2.9663   61.8878   67.8060 H   0  0  0  0  0  0  0  0  0  0  0  0
    4.6141   62.3822   67.2180 H   0  0  0  0  0  0  0  0  0  0  0  0
    5.0424   63.4233   69.4112 H   0  0  0  0  0  0  0  0  0  0  0  0
    2.9315   65.5224   71.1585 H   0  0  0  0  0  0  0  0  0  0  0  0
    2.8466   65.0734   69.4075 H   0  0  0  0  0  0  0  0  0  0  0  0
    0.9935   66.5988   70.3316 H   0  0  0  0  0  0  0  0  0  0  0  0
    0.5118   65.0989   69.3878 H   0  0  0  0  0  0  0  0  0  0  0  0
   -0.3348   65.9406   71.9867 H   0  0  0  0  0  0  0  0  0  0  0  0
   -0.7911   64.4698   70.9921 H   0  0  0  0  0  0  0  0  0  0  0  0
    1.3272   64.7189   73.1402 H   0  0  0  0  0  0  0  0  0  0  0  0
   -0.0953   63.6090   73.0498 H   0  0  0  0  0  0  0  0  0  0  0  0
    4.5574   60.3187   69.1884 H   0  0  0  0  0  0  0  0  0  0  0  0
    4.2924   57.9851   70.0034 H   0  0  0  0  0  0  0  0  0  0  0  0
    2.6927   57.4976   71.8549 H   0  0  0  0  0  0  0  0  0  0  0  0
    1.3655   59.3404   72.8561 H   0  0  0  0  0  0  0  0  0  0  0  0
  2  1  2  0
  3  2  1  0
  4  3  2  0
  5  4  1  0
  6  5  2  0
  6  1  1  0
  7  3  1  0
  8  7  1  0
  9  8  1  0
 10  9  1  0
 11 10  1  0
 12 11  1  0
 13 12  1  0
 14 13  1  0
 15 14  1  0
 16 15  1  0
 16 11  2  0
 17 16  1  0
 18 17  2  0
 19 18  1  0
 19 10  2  0
 20 19  1  0
 21 20  2  0
 22 21  1  0
 23 18  1  0
 23 22  2  0
 24  5  1  0
 25 24  1  0
 26 25  1  0
 27 26  1  0
 28 27  1  0
 29 28  1  0
 30 29  1  0
 31 30  1  0
 32 31  1  0
 33 32  1  0
 33 28  2  0
 34 33  1  0
 35 34  2  0
 36 35  1  0
 36 27  2  0
 37 36  1  0
 38 37  2  0
 39 38  1  0
 40 39  2  0
 40 35  1  0
  1 41  1  0
  2 42  1  0
  4 43  1  0
  6 44  1  0
  7 45  1  0
  7 46  1  0
  8 47  1  0
  8 48  1  0
  9 49  1  0
 12 50  1  0
 12 51  1  0
 13 52  1  0
 13 53  1  0
 14 54  1  0
 14 55  1  0
 15 56  1  0
 15 57  1  0
 20 58  1  0
 21 59  1  0
 22 60  1  0
 23 61  1  0
 24 62  1  0
 24 63  1  0
 25 64  1  0
 25 65  1  0
 26 66  1  0
 29 67  1  0
 29 68  1  0
 30 69  1  0
 30 70  1  0
 31 71  1  0
 31 72  1  0
 32 73  1  0
 32 74  1  0
 37 75  1  0
 38 76  1  0
 39 77  1  0
 40 78  1  0
M  END
>  <score>  (6) 
-12.028

$$$$
=
     RDKit          3D

 78 84  0  0  0  0  0  0  0  0999 V2000
    4.8110   63.3080   63.6660 C   0  0  0  0  0  0  0  0  0  0  0  0
    4.8780   64.5930   63.1310 C   0  0  0  0  0  0  0  0  0  0  0  0
    4.3600   65.6840   63.8390 C   0  0  0  0  0  0  0  0  0  0  0  0
    3.7660   65.4650   65.0910 C   0  0  0  0  0  0  0  0  0  0  0  0
    3.7020   64.1760   65.6390 C   0  0  0  0  0  0  0  0  0  0  0  0
    4.2260   63.0990   64.9150 C   0  0  0  0  0  0  0  0  0  0  0  0
    4.4750   67.0850   63.2800 C   0  0  0  0  0  0  0  0  0  0  0  0
    5.1580   68.0590   64.2520 C   0  0  0  0  0  0  0  0  0  0  0  0
    4.3800   69.3070   64.3710 N   0  0  0  0  0  0  0  0  0  0  0  0
    3.9190   69.4980   65.7070 C   0  0  0  0  0  0  0  0  0  0  0  0
    2.6230   69.0880   66.0420 C   0  0  0  0  0  0  0  0  0  0  0  0
    1.6070   68.5840   65.0500 C   0  0  0  0  0  0  0  0  0  0  0  0
    0.8280   67.3880   65.6080 C   0  0  0  0  0  0  0  0  0  0  0  0
    0.4270   67.5130   67.0850 C   0  0  0  0  0  0  0  0  0  0  0  0
    0.7980   68.8510   67.7210 C   0  0  0  0  0  0  0  0  0  0  0  0
    2.2110   69.2310   67.3650 C   0  0  0  0  0  0  0  0  0  0  0  0
    2.9960   69.7230   68.3470 N   0  0  0  0  0  0  0  0  0  0  0  0
    4.2460   70.0950   68.0340 C   0  0  0  0  0  0  0  0  0  0  0  0
    4.7760   70.0050   66.7270 C   0  0  0  0  0  0  0  0  0  0  0  0
    6.1180   70.4200   66.5180 C   0  0  0  0  0  0  0  0  0  0  0  0
    6.9020   70.9090   67.5630 C   0  0  0  0  0  0  0  0  0  0  0  0
    6.3640   70.9940   68.8370 C   0  0  0  0  0  0  0  0  0  0  0  0
    5.0470   70.5880   69.0560 C   0  0  0  0  0  0  0  0  0  0  0  0
    3.0520   63.9470   66.9830 C   0  0  0  0  0  0  0  0  0  0  0  0
    3.8070   62.8990   67.8050 C   0  0  0  0  0  0  0  0  0  0  0  0
    4.1600   63.3890   69.1540 N   0  0  0  0  0  0  0  0  0  0  0  0
    3.2030   63.0440   70.1510 C   0  0  0  0  0  0  0  0  0  0  0  0
    3.2830   61.7800   70.7490 C   0  0  0  0  0  0  0  0  0  0  0  0
    4.3640   60.7700   70.4620 C   0  0  0  0  0  0  0  0  0  0  0  0
    4.8600   60.1060   71.7510 C   0  0  0  0  0  0  0  0  0  0  0  0
    3.7520   59.7000   72.7320 C   0  0  0  0  0  0  0  0  0  0  0  0
    2.3390   60.0370   72.2590 C   0  0  0  0  0  0  0  0  0  0  0  0
    2.2900   61.4170   71.6560 C   0  0  0  0  0  0  0  0  0  0  0  0
    1.2650   62.2200   72.0060 N   0  0  0  0  0  0  0  0  0  0  0  0
    1.2050   63.4450   71.4670 C   0  0  0  0  0  0  0  0  0  0  0  0
    2.1470   63.9240   70.5270 C   0  0  0  0  0  0  0  0  0  0  0  0
    1.9850   65.2420   70.0290 C   0  0  0  0  0  0  0  0  0  0  0  0
    0.9260   66.0530   70.4370 C   0  0  0  0  0  0  0  0  0  0  0  0
    0.0070   65.5630   71.3520 C   0  0  0  0  0  0  0  0  0  0  0  0
    0.1580   64.2700   71.8550 C   0  0  0  0  0  0  0  0  0  0  0  0
    5.2203   62.4567   63.1022 H   0  0  0  0  0  0  0  0  0  0  0  0
    5.3410   64.7511   62.1458 H   0  0  0  0  0  0  0  0  0  0  0  0
    3.3456   66.3145   65.6492 H   0  0  0  0  0  0  0  0  0  0  0  0
    4.1763   62.0827   65.3329 H   0  0  0  0  0  0  0  0  0  0  0  0
    5.0626   67.0457   62.3509 H   0  0  0  0  0  0  0  0  0  0  0  0
    3.4547   67.4555   63.1019 H   0  0  0  0  0  0  0  0  0  0  0  0
    5.2359   67.5861   65.2421 H   0  0  0  0  0  0  0  0  0  0  0  0
    6.1589   68.3013   63.8654 H   0  0  0  0  0  0  0  0  0  0  0  0
    4.1943   69.9548   63.5920 H   0  0  0  0  0  0  0  0  0  0  0  0
    0.9006   69.3946   64.8177 H   0  0  0  0  0  0  0  0  0  0  0  0
    2.1390   68.2589   64.1437 H   0  0  0  0  0  0  0  0  0  0  0  0
   -0.0897   67.2697   65.0131 H   0  0  0  0  0  0  0  0  0  0  0  0
    1.5024   66.5215   65.5426 H   0  0  0  0  0  0  0  0  0  0  0  0
   -0.6631   67.3859   67.1589 H   0  0  0  0  0  0  0  0  0  0  0  0
    0.9833   66.7371   67.6314 H   0  0  0  0  0  0  0  0  0  0  0  0
    0.1111   69.6284   67.3552 H   0  0  0  0  0  0  0  0  0  0  0  0
    0.7193   68.7589   68.8143 H   0  0  0  0  0  0  0  0  0  0  0  0
    6.5494   70.3543   65.5083 H   0  0  0  0  0  0  0  0  0  0  0  0
    7.9392   71.2246   67.3771 H   0  0  0  0  0  0  0  0  0  0  0  0
    6.9708   71.3788   69.6699 H   0  0  0  0  0  0  0  0  0  0  0  0
    4.6296   70.6608   70.0711 H   0  0  0  0  0  0  0  0  0  0  0  0
    3.0398   64.8957   67.5395 H   0  0  0  0  0  0  0  0  0  0  0  0
    2.0301   63.5778   66.8116 H   0  0  0  0  0  0  0  0  0  0  0  0
    3.1724   62.0065   67.9081 H   0  0  0  0  0  0  0  0  0  0  0  0
    4.7435   62.6684   67.2760 H   0  0  0  0  0  0  0  0  0  0  0  0
    5.0149   63.9276   69.3537 H   0  0  0  0  0  0  0  0  0  0  0  0
    3.9626   59.9959   69.7914 H   0  0  0  0  0  0  0  0  0  0  0  0
    5.2106   61.2910   69.9911 H   0  0  0  0  0  0  0  0  0  0  0  0
    5.4220   59.2014   71.4758 H   0  0  0  0  0  0  0  0  0  0  0  0
    5.4741   60.8566   72.2701 H   0  0  0  0  0  0  0  0  0  0  0  0
    3.8125   58.6130   72.8894 H   0  0  0  0  0  0  0  0  0  0  0  0
    3.9212   60.2756   73.6540 H   0  0  0  0  0  0  0  0  0  0  0  0
    2.0273   59.3019   71.5024 H   0  0  0  0  0  0  0  0  0  0  0  0
    1.6614   60.0070   73.1250 H   0  0  0  0  0  0  0  0  0  0  0  0
    2.7124   65.6344   69.3031 H   0  0  0  0  0  0  0  0  0  0  0  0
    0.8210   67.0721   70.0364 H   0  0  0  0  0  0  0  0  0  0  0  0
   -0.8359   66.1894   71.6795 H   0  0  0  0  0  0  0  0  0  0  0  0
   -0.5760   63.8925   72.5821 H   0  0  0  0  0  0  0  0  0  0  0  0
  2  1  2  0
  3  2  1  0
  4  3  2  0
  5  4  1  0
  6  5  2  0
  6  1  1  0
  7  3  1  0
  8  7  1  0
  9  8  1  0
 10  9  1  0
 11 10  1  0
 12 11  1  0
 13 12  1  0
 14 13  1  0
 15 14  1  0
 16 15  1  0
 16 11  2  0
 17 16  1  0
 18 17  2  0
 19 18  1  0
 19 10  2  0
 20 19  1  0
 21 20  2  0
 22 21  1  0
 23 18  1  0
 23 22  2  0
 24  5  1  0
 25 24  1  0
 26 25  1  0
 27 26  1  0
 28 27  1  0
 29 28  1  0
 30 29  1  0
 31 30  1  0
 32 31  1  0
 33 32  1  0
 33 28  2  0
 34 33  1  0
 35 34  2  0
 36 35  1  0
 36 27  2  0
 37 36  1  0
 38 37  2  0
 39 38  1  0
 40 39  2  0
 40 35  1  0
  1 41  1  0
  2 42  1  0
  4 43  1  0
  6 44  1  0
  7 45  1  0
  7 46  1  0
  8 47  1  0
  8 48  1  0
  9 49  1  0
 12 50  1  0
 12 51  1  0
 13 52  1  0
 13 53  1  0
 14 54  1  0
 14 55  1  0
 15 56  1  0
 15 57  1  0
 20 58  1  0
 21 59  1  0
 22 60  1  0
 23 61  1  0
 24 62  1  0
 24 63  1  0
 25 64  1  0
 25 65  1  0
 26 66  1  0
 29 67  1  0
 29 68  1  0
 30 69  1  0
 30 70  1  0
 31 71  1  0
 31 72  1  0
 32 73  1  0
 32 74  1  0
 37 75  1  0
 38 76  1  0
 39 77  1  0
 40 78  1  0
M  END
>  <score>  (7) 
-11.995

$$$$
=
     RDKit          3D

 78 84  0  0  0  0  0  0  0  0999 V2000
    2.2520   63.8300   70.6530 C   0  0  0  0  0  0  0  0  0  0  0  0
    1.6590   63.6340   71.8980 C   0  0  0  0  0  0  0  0  0  0  0  0
    0.6310   64.4790   72.3340 C   0  0  0  0  0  0  0  0  0  0  0  0
    0.2090   65.5270   71.5020 C   0  0  0  0  0  0  0  0  0  0  0  0
    0.7960   65.7240   70.2440 C   0  0  0  0  0  0  0  0  0  0  0  0
    1.8230   64.8690   69.8280 C   0  0  0  0  0  0  0  0  0  0  0  0
   -0.0460   64.2380   73.6660 C   0  0  0  0  0  0  0  0  0  0  0  0
   -0.0390   62.7580   74.0780 C   0  0  0  0  0  0  0  0  0  0  0  0
   -0.9790   61.9810   73.2480 N   0  0  0  0  0  0  0  0  0  0  0  0
   -1.0860   60.6390   73.7150 C   0  0  0  0  0  0  0  0  0  0  0  0
   -2.2510   60.2440   74.3840 C   0  0  0  0  0  0  0  0  0  0  0  0
   -3.3600   61.1810   74.7860 C   0  0  0  0  0  0  0  0  0  0  0  0
   -4.7370   60.5550   74.5410 C   0  0  0  0  0  0  0  0  0  0  0  0
   -4.8440   59.0690   74.9180 C   0  0  0  0  0  0  0  0  0  0  0  0
   -3.5820   58.4950   75.5580 C   0  0  0  0  0  0  0  0  0  0  0  0
   -2.3600   58.9140   74.7830 C   0  0  0  0  0  0  0  0  0  0  0  0
   -1.4170   57.9780   74.5420 N   0  0  0  0  0  0  0  0  0  0  0  0
   -0.3100   58.3470   73.8810 C   0  0  0  0  0  0  0  0  0  0  0  0
   -0.0810   59.6670   73.4320 C   0  0  0  0  0  0  0  0  0  0  0  0
    1.1250   59.9370   72.7320 C   0  0  0  0  0  0  0  0  0  0  0  0
    2.0680   58.9390   72.4910 C   0  0  0  0  0  0  0  0  0  0  0  0
    1.8280   57.6510   72.9420 C   0  0  0  0  0  0  0  0  0  0  0  0
    0.6450   57.3720   73.6290 C   0  0  0  0  0  0  0  0  0  0  0  0
    0.3450   66.8610   69.3580 C   0  0  0  0  0  0  0  0  0  0  0  0
    1.3080   67.0840   68.1890 C   0  0  0  0  0  0  0  0  0  0  0  0
    1.1460   68.4170   67.5730 N   0  0  0  0  0  0  0  0  0  0  0  0
    2.3040   68.8630   66.8730 C   0  0  0  0  0  0  0  0  0  0  0  0
    2.4230   68.5590   65.5100 C   0  0  0  0  0  0  0  0  0  0  0  0
    1.3690   67.8460   64.7030 C   0  0  0  0  0  0  0  0  0  0  0  0
    1.1840   68.5000   63.3290 C   0  0  0  0  0  0  0  0  0  0  0  0
    2.4900   68.8780   62.6170 C   0  0  0  0  0  0  0  0  0  0  0  0
    3.7560   68.5430   63.4050 C   0  0  0  0  0  0  0  0  0  0  0  0
    3.5990   68.9180   64.8550 C   0  0  0  0  0  0  0  0  0  0  0  0
    4.6230   69.5600   65.4530 N   0  0  0  0  0  0  0  0  0  0  0  0
    4.5000   69.8870   66.7470 C   0  0  0  0  0  0  0  0  0  0  0  0
    3.3600   69.5680   67.5210 C   0  0  0  0  0  0  0  0  0  0  0  0
    3.3390   69.9720   68.8800 C   0  0  0  0  0  0  0  0  0  0  0  0
    4.4080   70.6580   69.4550 C   0  0  0  0  0  0  0  0  0  0  0  0
    5.5210   70.9560   68.6830 C   0  0  0  0  0  0  0  0  0  0  0  0
    5.5520   70.5690   67.3430 C   0  0  0  0  0  0  0  0  0  0  0  0
    3.0610   63.1633   70.3197 H   0  0  0  0  0  0  0  0  0  0  0  0
    2.0002   62.8105   72.5426 H   0  0  0  0  0  0  0  0  0  0  0  0
   -0.5913   66.2016   71.8404 H   0  0  0  0  0  0  0  0  0  0  0  0
    2.2942   65.0174   68.8452 H   0  0  0  0  0  0  0  0  0  0  0  0
    0.4791   64.8201   74.4376 H   0  0  0  0  0  0  0  0  0  0  0  0
   -1.0963   64.5487   73.5648 H   0  0  0  0  0  0  0  0  0  0  0  0
    0.9755   62.3525   73.9503 H   0  0  0  0  0  0  0  0  0  0  0  0
   -0.3507   62.6824   75.1302 H   0  0  0  0  0  0  0  0  0  0  0  0
   -1.4905   62.3587   72.4377 H   0  0  0  0  0  0  0  0  0  0  0  0
   -3.2592   61.4168   75.8557 H   0  0  0  0  0  0  0  0  0  0  0  0
   -3.2808   62.0931   74.1762 H   0  0  0  0  0  0  0  0  0  0  0  0
   -5.4771   61.1128   75.1335 H   0  0  0  0  0  0  0  0  0  0  0  0
   -4.9163   60.6139   73.4573 H   0  0  0  0  0  0  0  0  0  0  0  0
   -5.6754   58.9521   75.6287 H   0  0  0  0  0  0  0  0  0  0  0  0
   -5.0042   58.5152   73.9812 H   0  0  0  0  0  0  0  0  0  0  0  0
   -3.4998   58.8643   76.5909 H   0  0  0  0  0  0  0  0  0  0  0  0
   -3.6479   57.3970   75.5520 H   0  0  0  0  0  0  0  0  0  0  0  0
    1.3195   60.9579   72.3715 H   0  0  0  0  0  0  0  0  0  0  0  0
    2.9953   59.1722   71.9471 H   0  0  0  0  0  0  0  0  0  0  0  0
    2.5641   56.8541   72.7601 H   0  0  0  0  0  0  0  0  0  0  0  0
    0.4640   56.3460   73.9820 H   0  0  0  0  0  0  0  0  0  0  0  0
   -0.6528   66.6273   68.9583 H   0  0  0  0  0  0  0  0  0  0  0  0
    0.3220   67.7792   69.9633 H   0  0  0  0  0  0  0  0  0  0  0  0
    2.3398   66.9883   68.5580 H   0  0  0  0  0  0  0  0  0  0  0  0
    1.0834   66.3296   67.4206 H   0  0  0  0  0  0  0  0  0  0  0  0
    0.2800   68.9702   67.6428 H   0  0  0  0  0  0  0  0  0  0  0  0
    1.6724   66.7979   64.5633 H   0  0  0  0  0  0  0  0  0  0  0  0
    0.4150   67.9051   65.2475 H   0  0  0  0  0  0  0  0  0  0  0  0
    0.6345   67.7967   62.6861 H   0  0  0  0  0  0  0  0  0  0  0  0
    0.6420   69.4411   63.5036 H   0  0  0  0  0  0  0  0  0  0  0  0
    2.5282   68.3394   61.6586 H   0  0  0  0  0  0  0  0  0  0  0  0
    2.4762   69.9709   62.4931 H   0  0  0  0  0  0  0  0  0  0  0  0
    3.9515   67.4630   63.3310 H   0  0  0  0  0  0  0  0  0  0  0  0
    4.5956   69.1142   62.9823 H   0  0  0  0  0  0  0  0  0  0  0  0
    2.4578   69.7385   69.4957 H   0  0  0  0  0  0  0  0  0  0  0  0
    4.3690   70.9603   70.5119 H   0  0  0  0  0  0  0  0  0  0  0  0
    6.3732   71.4937   69.1241 H   0  0  0  0  0  0  0  0  0  0  0  0
    6.4387   70.8121   66.7392 H   0  0  0  0  0  0  0  0  0  0  0  0
  2  1  2  0
  3  2  1  0
  4  3  2  0
  5  4  1  0
  6  5  2  0
  6  1  1  0
  7  3  1  0
  8  7  1  0
  9  8  1  0
 10  9  1  0
 11 10  1  0
 12 11  1  0
 13 12  1  0
 14 13  1  0
 15 14  1  0
 16 15  1  0
 16 11  2  0
 17 16  1  0
 18 17  2  0
 19 18  1  0
 19 10  2  0
 20 19  1  0
 21 20  2  0
 22 21  1  0
 23 18  1  0
 23 22  2  0
 24  5  1  0
 25 24  1  0
 26 25  1  0
 27 26  1  0
 28 27  1  0
 29 28  1  0
 30 29  1  0
 31 30  1  0
 32 31  1  0
 33 32  1  0
 33 28  2  0
 34 33  1  0
 35 34  2  0
 36 35  1  0
 36 27  2  0
 37 36  1  0
 38 37  2  0
 39 38  1  0
 40 39  2  0
 40 35  1  0
  1 41  1  0
  2 42  1  0
  4 43  1  0
  6 44  1  0
  7 45  1  0
  7 46  1  0
  8 47  1  0
  8 48  1  0
  9 49  1  0
 12 50  1  0
 12 51  1  0
 13 52  1  0
 13 53  1  0
 14 54  1  0
 14 55  1  0
 15 56  1  0
 15 57  1  0
 20 58  1  0
 21 59  1  0
 22 60  1  0
 23 61  1  0
 24 62  1  0
 24 63  1  0
 25 64  1  0
 25 65  1  0
 26 66  1  0
 29 67  1  0
 29 68  1  0
 30 69  1  0
 30 70  1  0
 31 71  1  0
 31 72  1  0
 32 73  1  0
 32 74  1  0
 37 75  1  0
 38 76  1  0
 39 77  1  0
 40 78  1  0
M  END
>  <score>  (8) 
-11.947

$$$$
=
     RDKit          3D

 78 84  0  0  0  0  0  0  0  0999 V2000
   -0.1720   63.4960   70.4890 C   0  0  0  0  0  0  0  0  0  0  0  0
   -0.2710   64.8440   70.1510 C   0  0  0  0  0  0  0  0  0  0  0  0
    0.8800   65.6360   70.0500 C   0  0  0  0  0  0  0  0  0  0  0  0
    2.1320   65.0540   70.2990 C   0  0  0  0  0  0  0  0  0  0  0  0
    2.2400   63.6960   70.6310 C   0  0  0  0  0  0  0  0  0  0  0  0
    1.0770   62.9230   70.7270 C   0  0  0  0  0  0  0  0  0  0  0  0
    0.7780   67.0880   69.6370 C   0  0  0  0  0  0  0  0  0  0  0  0
    1.8540   67.4940   68.6190 C   0  0  0  0  0  0  0  0  0  0  0  0
    1.8530   68.9550   68.4150 N   0  0  0  0  0  0  0  0  0  0  0  0
    2.8800   69.3470   67.5070 C   0  0  0  0  0  0  0  0  0  0  0  0
    3.9680   70.0850   67.9900 C   0  0  0  0  0  0  0  0  0  0  0  0
    4.0700   70.6330   69.3890 C   0  0  0  0  0  0  0  0  0  0  0  0
    5.4840   70.4650   69.9530 C   0  0  0  0  0  0  0  0  0  0  0  0
    6.6140   70.7580   68.9550 C   0  0  0  0  0  0  0  0  0  0  0  0
    6.1310   71.2560   67.5940 C   0  0  0  0  0  0  0  0  0  0  0  0
    4.9880   70.4090   67.0980 C   0  0  0  0  0  0  0  0  0  0  0  0
    4.9980   70.0350   65.8010 N   0  0  0  0  0  0  0  0  0  0  0  0
    3.9700   69.3080   65.3410 C   0  0  0  0  0  0  0  0  0  0  0  0
    2.8740   68.9230   66.1450 C   0  0  0  0  0  0  0  0  0  0  0  0
    1.8460   68.1440   65.5500 C   0  0  0  0  0  0  0  0  0  0  0  0
    1.9020   67.7650   64.2080 C   0  0  0  0  0  0  0  0  0  0  0  0
    2.9830   68.1560   63.4340 C   0  0  0  0  0  0  0  0  0  0  0  0
    4.0000   68.9200   64.0080 C   0  0  0  0  0  0  0  0  0  0  0  0
    3.5900   63.0800   70.9070 C   0  0  0  0  0  0  0  0  0  0  0  0
    3.4770   61.5840   71.2170 C   0  0  0  0  0  0  0  0  0  0  0  0
    3.6230   61.2950   72.6590 N   0  0  0  0  0  0  0  0  0  0  0  0
    2.4350   60.7850   73.2580 C   0  0  0  0  0  0  0  0  0  0  0  0
    1.6640   61.6430   74.0530 C   0  0  0  0  0  0  0  0  0  0  0  0
    1.9650   63.1040   74.2670 C   0  0  0  0  0  0  0  0  0  0  0  0
    0.6890   63.9500   74.1920 C   0  0  0  0  0  0  0  0  0  0  0  0
   -0.5190   63.3580   74.9310 C   0  0  0  0  0  0  0  0  0  0  0  0
   -0.2450   62.0170   75.6100 C   0  0  0  0  0  0  0  0  0  0  0  0
    0.5540   61.1130   74.7080 C   0  0  0  0  0  0  0  0  0  0  0  0
    0.1690   59.8250   74.6060 N   0  0  0  0  0  0  0  0  0  0  0  0
    0.8810   59.0090   73.8170 C   0  0  0  0  0  0  0  0  0  0  0  0
    2.0320   59.4260   73.1090 C   0  0  0  0  0  0  0  0  0  0  0  0
    2.7010   58.4750   72.2980 C   0  0  0  0  0  0  0  0  0  0  0  0
    2.2540   57.1580   72.1980 C   0  0  0  0  0  0  0  0  0  0  0  0
    1.1290   56.7640   72.9060 C   0  0  0  0  0  0  0  0  0  0  0  0
    0.4580   57.6920   73.7030 C   0  0  0  0  0  0  0  0  0  0  0  0
   -1.0813   62.8821   70.5683 H   0  0  0  0  0  0  0  0  0  0  0  0
   -1.2591   65.2891   69.9623 H   0  0  0  0  0  0  0  0  0  0  0  0
    3.0404   65.6708   70.2329 H   0  0  0  0  0  0  0  0  0  0  0  0
    1.1486   61.8577   70.9916 H   0  0  0  0  0  0  0  0  0  0  0  0
   -0.2120   67.2571   69.1883 H   0  0  0  0  0  0  0  0  0  0  0  0
    0.9272   67.7002   70.5387 H   0  0  0  0  0  0  0  0  0  0  0  0
    2.8406   67.1821   68.9924 H   0  0  0  0  0  0  0  0  0  0  0  0
    1.6367   67.0024   67.6592 H   0  0  0  0  0  0  0  0  0  0  0  0
    1.1967   69.6063   68.8688 H   0  0  0  0  0  0  0  0  0  0  0  0
    3.8155   71.7031   69.3737 H   0  0  0  0  0  0  0  0  0  0  0  0
    3.3725   70.0752   70.0311 H   0  0  0  0  0  0  0  0  0  0  0  0
    5.5955   71.1494   70.8069 H   0  0  0  0  0  0  0  0  0  0  0  0
    5.5829   69.4052   70.2307 H   0  0  0  0  0  0  0  0  0  0  0  0
    7.2694   71.5262   69.3912 H   0  0  0  0  0  0  0  0  0  0  0  0
    7.1351   69.8056   68.7775 H   0  0  0  0  0  0  0  0  0  0  0  0
    5.7943   72.2989   67.6887 H   0  0  0  0  0  0  0  0  0  0  0  0
    6.9613   71.1895   66.8755 H   0  0  0  0  0  0  0  0  0  0  0  0
    0.9860   67.8323   66.1610 H   0  0  0  0  0  0  0  0  0  0  0  0
    1.0947   67.1609   63.7682 H   0  0  0  0  0  0  0  0  0  0  0  0
    3.0390   67.8661   62.3744 H   0  0  0  0  0  0  0  0  0  0  0  0
    4.8532   69.2248   63.3842 H   0  0  0  0  0  0  0  0  0  0  0  0
    4.2304   63.2135   70.0226 H   0  0  0  0  0  0  0  0  0  0  0  0
    4.0224   63.5808   71.7858 H   0  0  0  0  0  0  0  0  0  0  0  0
    2.4913   61.2275   70.8833 H   0  0  0  0  0  0  0  0  0  0  0  0
    4.2922   61.0692   70.6875 H   0  0  0  0  0  0  0  0  0  0  0  0
    4.4982   61.4474   73.1802 H   0  0  0  0  0  0  0  0  0  0  0  0
    2.4240   63.2343   75.2581 H   0  0  0  0  0  0  0  0  0  0  0  0
    2.6511   63.4378   73.4747 H   0  0  0  0  0  0  0  0  0  0  0  0
    0.9064   64.9368   74.6268 H   0  0  0  0  0  0  0  0  0  0  0  0
    0.4099   63.9966   73.1290 H   0  0  0  0  0  0  0  0  0  0  0  0
   -0.8371   64.0757   75.7015 H   0  0  0  0  0  0  0  0  0  0  0  0
   -1.2937   63.1744   74.1720 H   0  0  0  0  0  0  0  0  0  0  0  0
    0.3199   62.1914   76.5376 H   0  0  0  0  0  0  0  0  0  0  0  0
   -1.2068   61.5318   75.8324 H   0  0  0  0  0  0  0  0  0  0  0  0
    3.5938   58.7833   71.7343 H   0  0  0  0  0  0  0  0  0  0  0  0
    2.7897   56.4374   71.5625 H   0  0  0  0  0  0  0  0  0  0  0  0
    0.7680   55.7270   72.8398 H   0  0  0  0  0  0  0  0  0  0  0  0
   -0.4348   57.3696   74.2588 H   0  0  0  0  0  0  0  0  0  0  0  0
  2  1  2  0
  3  2  1  0
  4  3  2  0
  5  4  1  0
  6  5  2  0
  6  1  1  0
  7  3  1  0
  8  7  1  0
  9  8  1  0
 10  9  1  0
 11 10  1  0
 12 11  1  0
 13 12  1  0
 14 13  1  0
 15 14  1  0
 16 15  1  0
 16 11  2  0
 17 16  1  0
 18 17  2  0
 19 18  1  0
 19 10  2  0
 20 19  1  0
 21 20  2  0
 22 21  1  0
 23 18  1  0
 23 22  2  0
 24  5  1  0
 25 24  1  0
 26 25  1  0
 27 26  1  0
 28 27  1  0
 29 28  1  0
 30 29  1  0
 31 30  1  0
 32 31  1  0
 33 32  1  0
 33 28  2  0
 34 33  1  0
 35 34  2  0
 36 35  1  0
 36 27  2  0
 37 36  1  0
 38 37  2  0
 39 38  1  0
 40 39  2  0
 40 35  1  0
  1 41  1  0
  2 42  1  0
  4 43  1  0
  6 44  1  0
  7 45  1  0
  7 46  1  0
  8 47  1  0
  8 48  1  0
  9 49  1  0
 12 50  1  0
 12 51  1  0
 13 52  1  0
 13 53  1  0
 14 54  1  0
 14 55  1  0
 15 56  1  0
 15 57  1  0
 20 58  1  0
 21 59  1  0
 22 60  1  0
 23 61  1  0
 24 62  1  0
 24 63  1  0
 25 64  1  0
 25 65  1  0
 26 66  1  0
 29 67  1  0
 29 68  1  0
 30 69  1  0
 30 70  1  0
 31 71  1  0
 31 72  1  0
 32 73  1  0
 32 74  1  0
 37 75  1  0
 38 76  1  0
 39 77  1  0
 40 78  1  0
M  END
>  <score>  (9) 
-11.762

$$$$
