=
     RDKit          3D

 19 19  0  0  0  0  0  0  0  0999 V2000
    5.4770   69.6830   65.4850 C   0  0  0  0  0  0  0  0  0  0  0  0
    6.3270   70.2050   66.4540 C   0  0  0  0  0  0  0  0  0  0  0  0
    5.8420   70.4740   67.7440 C   0  0  0  0  0  0  0  0  0  0  0  0
    6.7820   71.0380   68.7750 C   0  0  0  0  0  0  0  0  0  0  0  0
    4.4880   70.2070   68.0350 C   0  0  0  0  0  0  0  0  0  0  0  0
    3.6290   69.6780   67.0510 C   0  0  0  0  0  0  0  0  0  0  0  0
    4.1430   69.4200   65.7720 C   0  0  0  0  0  0  0  0  0  0  0  0
    2.1810   69.3830   67.3290 C   0  0  0  0  0  0  0  0  0  0  0  0
    3.8720   70.5340   69.6260 Cl  0  0  0  0  0  0  0  0  0  0  0  0
    5.9180   69.4110   64.2240 O   0  0  0  0  0  0  0  0  0  0  0  0
    7.3803   70.4074   66.2097 H   0  0  0  0  0  0  0  0  0  0  0  0
    6.4018   70.8099   69.7817 H   0  0  0  0  0  0  0  0  0  0  0  0
    7.7778   70.5880   68.6485 H   0  0  0  0  0  0  0  0  0  0  0  0
    6.8536   72.1284   68.6485 H   0  0  0  0  0  0  0  0  0  0  0  0
    3.4867   69.0072   64.9917 H   0  0  0  0  0  0  0  0  0  0  0  0
    2.0158   69.3493   68.4160 H   0  0  0  0  0  0  0  0  0  0  0  0
    1.5547   70.1720   66.8872 H   0  0  0  0  0  0  0  0  0  0  0  0
    1.9133   68.4119   66.8872 H   0  0  0  0  0  0  0  0  0  0  0  0
    5.2943   69.0396   63.5508 H   0  0  0  0  0  0  0  0  0  0  0  0
  2  1  2  0
  3  2  1  0
  4  3  1  0
  5  3  2  0
  6  5  1  0
  7  6  2  0
  7  1  1  0
  8  6  1  0
  9  5  1  0
 10  1  1  0
  2 11  1  0
  4 12  1  0
  4 13  1  0
  4 14  1  0
  7 15  1  0
  8 16  1  0
  8 17  1  0
  8 18  1  0
 10 19  1  0
M  END
>  <score>  (1) 
-7.176

$$$$
=
     RDKit          3D

 19 19  0  0  0  0  0  0  0  0999 V2000
    5.4560   69.7010   65.4690 C   0  0  0  0  0  0  0  0  0  0  0  0
    4.1320   69.4280   65.7950 C   0  0  0  0  0  0  0  0  0  0  0  0
    3.6570   69.7000   67.0890 C   0  0  0  0  0  0  0  0  0  0  0  0
    2.2200   69.3970   67.4180 C   0  0  0  0  0  0  0  0  0  0  0  0
    4.5410   70.2480   68.0410 C   0  0  0  0  0  0  0  0  0  0  0  0
    5.8820   70.5230   67.7070 C   0  0  0  0  0  0  0  0  0  0  0  0
    6.3270   70.2410   66.4080 C   0  0  0  0  0  0  0  0  0  0  0  0
    6.8500   71.1060   68.6990 C   0  0  0  0  0  0  0  0  0  0  0  0
    3.9690   70.5900   69.6450 Cl  0  0  0  0  0  0  0  0  0  0  0  0
    5.9470   69.4490   64.2220 O   0  0  0  0  0  0  0  0  0  0  0  0
    3.4567   68.9992   65.0399 H   0  0  0  0  0  0  0  0  0  0  0  0
    2.0917   69.3700   68.5102 H   0  0  0  0  0  0  0  0  0  0  0  0
    1.5737   70.1786   66.9922 H   0  0  0  0  0  0  0  0  0  0  0  0
    1.9443   68.4210   66.9922 H   0  0  0  0  0  0  0  0  0  0  0  0
    7.3710   70.4482   66.1303 H   0  0  0  0  0  0  0  0  0  0  0  0
    6.4999   70.8952   69.7203 H   0  0  0  0  0  0  0  0  0  0  0  0
    7.8425   70.6553   68.5512 H   0  0  0  0  0  0  0  0  0  0  0  0
    6.9157   72.1940   68.5512 H   0  0  0  0  0  0  0  0  0  0  0  0
    6.8931   69.6514   64.0123 H   0  0  0  0  0  0  0  0  0  0  0  0
  2  1  2  0
  3  2  1  0
  4  3  1  0
  5  3  2  0
  6  5  1  0
  7  6  2  0
  7  1  1  0
  8  6  1  0
  9  5  1  0
 10  1  1  0
  2 11  1  0
  4 12  1  0
  4 13  1  0
  4 14  1  0
  7 15  1  0
  8 16  1  0
  8 17  1  0
  8 18  1  0
 10 19  1  0
M  END
>  <score>  (2) 
-7.175

$$$$
=
     RDKit          3D

 19 19  0  0  0  0  0  0  0  0999 V2000
    3.2690   69.9450   68.3390 C   0  0  0  0  0  0  0  0  0  0  0  0
    2.5810   69.4220   67.2500 C   0  0  0  0  0  0  0  0  0  0  0  0
    3.2370   69.2490   66.0210 C   0  0  0  0  0  0  0  0  0  0  0  0
    2.4700   68.6800   64.8570 C   0  0  0  0  0  0  0  0  0  0  0  0
    4.5950   69.6130   65.9120 C   0  0  0  0  0  0  0  0  0  0  0  0
    5.2900   70.1430   67.0170 C   0  0  0  0  0  0  0  0  0  0  0  0
    4.6080   70.3040   68.2320 C   0  0  0  0  0  0  0  0  0  0  0  0
    6.7380   70.5420   66.9350 C   0  0  0  0  0  0  0  0  0  0  0  0
    5.4210   69.4050   64.3990 Cl  0  0  0  0  0  0  0  0  0  0  0  0
    2.6610   70.1250   69.5450 O   0  0  0  0  0  0  0  0  0  0  0  0
    1.5217   69.1435   67.3515 H   0  0  0  0  0  0  0  0  0  0  0  0
    1.6393   68.0637   65.2314 H   0  0  0  0  0  0  0  0  0  0  0  0
    2.0701   69.5016   64.2446 H   0  0  0  0  0  0  0  0  0  0  0  0
    3.1403   68.0590   64.2446 H   0  0  0  0  0  0  0  0  0  0  0  0
    5.1353   70.7165   69.1049 H   0  0  0  0  0  0  0  0  0  0  0  0
    7.1455   70.6543   67.9506 H   0  0  0  0  0  0  0  0  0  0  0  0
    7.3023   69.7659   66.3972 H   0  0  0  0  0  0  0  0  0  0  0  0
    6.8251   71.4976   66.3972 H   0  0  0  0  0  0  0  0  0  0  0  0
    3.1719   70.4992   70.3060 H   0  0  0  0  0  0  0  0  0  0  0  0
  2  1  2  0
  3  2  1  0
  4  3  1  0
  5  3  2  0
  6  5  1  0
  7  6  2  0
  7  1  1  0
  8  6  1  0
  9  5  1  0
 10  1  1  0
  2 11  1  0
  4 12  1  0
  4 13  1  0
  4 14  1  0
  7 15  1  0
  8 16  1  0
  8 17  1  0
  8 18  1  0
 10 19  1  0
M  END
>  <score>  (3) 
-7.093

$$$$
=
     RDKit          3D

 19 19  0  0  0  0  0  0  0  0999 V2000
    3.2930   70.0240   68.3570 C   0  0  0  0  0  0  0  0  0  0  0  0
    4.6390   70.3270   68.1900 C   0  0  0  0  0  0  0  0  0  0  0  0
    5.2670   70.0810   66.9590 C   0  0  0  0  0  0  0  0  0  0  0  0
    6.7260   70.4180   66.8030 C   0  0  0  0  0  0  0  0  0  0  0  0
    4.5140   69.5260   65.9040 C   0  0  0  0  0  0  0  0  0  0  0  0
    3.1490   69.2200   66.0760 C   0  0  0  0  0  0  0  0  0  0  0  0
    2.5500   69.4770   67.3180 C   0  0  0  0  0  0  0  0  0  0  0  0
    2.3170   68.6260   64.9730 C   0  0  0  0  0  0  0  0  0  0  0  0
    5.2760   69.2160   64.3750 Cl  0  0  0  0  0  0  0  0  0  0  0  0
    2.6540   70.2510   69.5400 O   0  0  0  0  0  0  0  0  0  0  0  0
    5.2125   70.7598   69.0229 H   0  0  0  0  0  0  0  0  0  0  0  0
    7.1860   70.5243   67.7965 H   0  0  0  0  0  0  0  0  0  0  0  0
    7.2311   69.6129   66.2493 H   0  0  0  0  0  0  0  0  0  0  0  0
    6.8269   71.3631   66.2493 H   0  0  0  0  0  0  0  0  0  0  0  0
    1.4858   69.2441   67.4704 H   0  0  0  0  0  0  0  0  0  0  0  0
    1.4951   68.0392   65.4091 H   0  0  0  0  0  0  0  0  0  0  0  0
    1.9018   69.4331   64.3516 H   0  0  0  0  0  0  0  0  0  0  0  0
    2.9455   67.9712   64.3516 H   0  0  0  0  0  0  0  0  0  0  0  0
    1.6944   70.0270   69.6352 H   0  0  0  0  0  0  0  0  0  0  0  0
  2  1  2  0
  3  2  1  0
  4  3  1  0
  5  3  2  0
  6  5  1  0
  7  6  2  0
  7  1  1  0
  8  6  1  0
  9  5  1  0
 10  1  1  0
  2 11  1  0
  4 12  1  0
  4 13  1  0
  4 14  1  0
  7 15  1  0
  8 16  1  0
  8 17  1  0
  8 18  1  0
 10 19  1  0
M  END
>  <score>  (4) 
-7.032

$$$$
=
     RDKit          3D

 19 19  0  0  0  0  0  0  0  0999 V2000
    2.2090   69.0870   66.6790 C   0  0  0  0  0  0  0  0  0  0  0  0
    2.6560   69.5940   67.8940 C   0  0  0  0  0  0  0  0  0  0  0  0
    3.9790   70.0460   68.0230 C   0  0  0  0  0  0  0  0  0  0  0  0
    4.4390   70.5910   69.3490 C   0  0  0  0  0  0  0  0  0  0  0  0
    4.8380   69.9750   66.9080 C   0  0  0  0  0  0  0  0  0  0  0  0
    4.3830   69.4600   65.6780 C   0  0  0  0  0  0  0  0  0  0  0  0
    3.0560   69.0170   65.5800 C   0  0  0  0  0  0  0  0  0  0  0  0
    5.2730   69.3700   64.4690 C   0  0  0  0  0  0  0  0  0  0  0  0
    6.4780   70.5300   67.0510 Cl  0  0  0  0  0  0  0  0  0  0  0  0
    0.9310   68.6400   66.5220 O   0  0  0  0  0  0  0  0  0  0  0  0
    1.9727   69.6410   68.7547 H   0  0  0  0  0  0  0  0  0  0  0  0
    3.9619   70.0257   70.1632 H   0  0  0  0  0  0  0  0  0  0  0  0
    5.5319   70.4934   69.4263 H   0  0  0  0  0  0  0  0  0  0  0  0
    4.1592   71.6520   69.4263 H   0  0  0  0  0  0  0  0  0  0  0  0
    2.6837   68.6118   64.6275 H   0  0  0  0  0  0  0  0  0  0  0  0
    6.3194   69.2642   64.7911 H   0  0  0  0  0  0  0  0  0  0  0  0
    4.9849   68.4964   63.8658 H   0  0  0  0  0  0  0  0  0  0  0  0
    5.1656   70.2836   63.8658 H   0  0  0  0  0  0  0  0  0  0  0  0
    0.6354   68.2831   65.6472 H   0  0  0  0  0  0  0  0  0  0  0  0
  2  1  2  0
  3  2  1  0
  4  3  1  0
  5  3  2  0
  6  5  1  0
  7  6  2  0
  7  1  1  0
  8  6  1  0
  9  5  1  0
 10  1  1  0
  2 11  1  0
  4 12  1  0
  4 13  1  0
  4 14  1  0
  7 15  1  0
  8 16  1  0
  8 17  1  0
  8 18  1  0
 10 19  1  0
M  END
>  <score>  (5) 
-6.867

$$$$
=
     RDKit          3D

 19 19  0  0  0  0  0  0  0  0999 V2000
    2.1990   69.0850   66.6800 C   0  0  0  0  0  0  0  0  0  0  0  0
    3.0480   69.0150   65.5800 C   0  0  0  0  0  0  0  0  0  0  0  0
    4.3750   69.4610   65.6880 C   0  0  0  0  0  0  0  0  0  0  0  0
    5.2740   69.3750   64.4840 C   0  0  0  0  0  0  0  0  0  0  0  0
    4.8270   69.9760   66.9200 C   0  0  0  0  0  0  0  0  0  0  0  0
    3.9650   70.0450   68.0330 C   0  0  0  0  0  0  0  0  0  0  0  0
    2.6450   69.5930   67.8940 C   0  0  0  0  0  0  0  0  0  0  0  0
    4.4140   70.5900   69.3610 C   0  0  0  0  0  0  0  0  0  0  0  0
    6.4660   70.5310   67.0700 Cl  0  0  0  0  0  0  0  0  0  0  0  0
    0.9060   68.6610   66.6080 O   0  0  0  0  0  0  0  0  0  0  0  0
    2.6797   68.6103   64.6258 H   0  0  0  0  0  0  0  0  0  0  0  0
    6.3189   69.2750   64.8130 H   0  0  0  0  0  0  0  0  0  0  0  0
    4.9946   68.4995   63.8795 H   0  0  0  0  0  0  0  0  0  0  0  0
    5.1656   70.2876   63.8795 H   0  0  0  0  0  0  0  0  0  0  0  0
    1.9579   69.6409   68.7517 H   0  0  0  0  0  0  0  0  0  0  0  0
    3.9412   70.0161   70.1716 H   0  0  0  0  0  0  0  0  0  0  0  0
    5.5078   70.5051   69.4413 H   0  0  0  0  0  0  0  0  0  0  0  0
    4.1214   71.6473   69.4413 H   0  0  0  0  0  0  0  0  0  0  0  0
    0.3205   68.7206   67.4040 H   0  0  0  0  0  0  0  0  0  0  0  0
  2  1  2  0
  3  2  1  0
  4  3  1  0
  5  3  2  0
  6  5  1  0
  7  6  2  0
  7  1  1  0
  8  6  1  0
  9  5  1  0
 10  1  1  0
  2 11  1  0
  4 12  1  0
  4 13  1  0
  4 14  1  0
  7 15  1  0
  8 16  1  0
  8 17  1  0
  8 18  1  0
 10 19  1  0
M  END
>  <score>  (6) 
-6.865

$$$$
=
     RDKit          3D

 19 19  0  0  0  0  0  0  0  0999 V2000
    6.2290   70.9840   68.1620 C   0  0  0  0  0  0  0  0  0  0  0  0
    5.0050   70.8430   68.8060 C   0  0  0  0  0  0  0  0  0  0  0  0
    3.9400   70.1990   68.1570 C   0  0  0  0  0  0  0  0  0  0  0  0
    2.6250   70.0580   68.8760 C   0  0  0  0  0  0  0  0  0  0  0  0
    4.1320   69.7050   66.8500 C   0  0  0  0  0  0  0  0  0  0  0  0
    5.3730   69.8500   66.2000 C   0  0  0  0  0  0  0  0  0  0  0  0
    6.4190   70.4980   66.8740 C   0  0  0  0  0  0  0  0  0  0  0  0
    5.6120   69.3360   64.8070 C   0  0  0  0  0  0  0  0  0  0  0  0
    2.8240   68.9070   66.0330 Cl  0  0  0  0  0  0  0  0  0  0  0  0
    7.2830   71.6040   68.7650 O   0  0  0  0  0  0  0  0  0  0  0  0
    4.8711   71.2363   69.8245 H   0  0  0  0  0  0  0  0  0  0  0  0
    2.7972   70.0765   69.9623 H   0  0  0  0  0  0  0  0  0  0  0  0
    1.9627   70.8903   68.5956 H   0  0  0  0  0  0  0  0  0  0  0  0
    2.1542   69.1042   68.5956 H   0  0  0  0  0  0  0  0  0  0  0  0
    7.3943   70.6220   66.3805 H   0  0  0  0  0  0  0  0  0  0  0  0
    6.0753   68.3396   64.8583 H   0  0  0  0  0  0  0  0  0  0  0  0
    4.6534   69.2675   64.2719 H   0  0  0  0  0  0  0  0  0  0  0  0
    6.2822   70.0249   64.2719 H   0  0  0  0  0  0  0  0  0  0  0  0
    8.1451   71.6925   68.2864 H   0  0  0  0  0  0  0  0  0  0  0  0
  2  1  2  0
  3  2  1  0
  4  3  1  0
  5  3  2  0
  6  5  1  0
  7  6  2  0
  7  1  1  0
  8  6  1  0
  9  5  1  0
 10  1  1  0
  2 11  1  0
  4 12  1  0
  4 13  1  0
  4 14  1  0
  7 15  1  0
  8 16  1  0
  8 17  1  0
  8 18  1  0
 10 19  1  0
M  END
>  <score>  (7) 
-6.818

$$$$
=
     RDKit          3D

 19 19  0  0  0  0  0  0  0  0999 V2000
    4.6450   69.1090   63.1600 C   0  0  0  0  0  0  0  0  0  0  0  0
    3.3050   68.7720   63.3160 C   0  0  0  0  0  0  0  0  0  0  0  0
    2.7090   68.8340   64.5860 C   0  0  0  0  0  0  0  0  0  0  0  0
    1.2570   68.4640   64.7300 C   0  0  0  0  0  0  0  0  0  0  0  0
    3.4880   69.2400   65.6890 C   0  0  0  0  0  0  0  0  0  0  0  0
    4.8450   69.5810   65.5270 C   0  0  0  0  0  0  0  0  0  0  0  0
    5.4120   69.5090   64.2470 C   0  0  0  0  0  0  0  0  0  0  0  0
    5.7040   70.0180   66.6820 C   0  0  0  0  0  0  0  0  0  0  0  0
    2.7650   69.3220   67.2660 Cl  0  0  0  0  0  0  0  0  0  0  0  0
    5.2530   69.0590   61.9400 O   0  0  0  0  0  0  0  0  0  0  0  0
    2.7120   68.4569   62.4448 H   0  0  0  0  0  0  0  0  0  0  0  0
    0.9995   68.3984   65.7974 H   0  0  0  0  0  0  0  0  0  0  0  0
    0.6335   69.2320   64.2489 H   0  0  0  0  0  0  0  0  0  0  0  0
    1.0770   67.4913   64.2489 H   0  0  0  0  0  0  0  0  0  0  0  0
    6.4706   69.7708   64.1024 H   0  0  0  0  0  0  0  0  0  0  0  0
    5.2037   69.7635   67.6280 H   0  0  0  0  0  0  0  0  0  0  0  0
    6.6755   69.5045   66.6313 H   0  0  0  0  0  0  0  0  0  0  0  0
    5.8610   71.1056   66.6313 H   0  0  0  0  0  0  0  0  0  0  0  0
    6.2084   69.3035   61.8527 H   0  0  0  0  0  0  0  0  0  0  0  0
  2  1  2  0
  3  2  1  0
  4  3  1  0
  5  3  2  0
  6  5  1  0
  7  6  2  0
  7  1  1  0
  8  6  1  0
  9  5  1  0
 10  1  1  0
  2 11  1  0
  4 12  1  0
  4 13  1  0
  4 14  1  0
  7 15  1  0
  8 16  1  0
  8 17  1  0
  8 18  1  0
 10 19  1  0
M  END
>  <score>  (8) 
-6.716

$$$$
=
     RDKit          3D

 19 19  0  0  0  0  0  0  0  0999 V2000
    4.8720   69.8960   67.0300 C   0  0  0  0  0  0  0  0  0  0  0  0
    3.5470   69.5080   67.1960 C   0  0  0  0  0  0  0  0  0  0  0  0
    2.7990   69.0730   66.0900 C   0  0  0  0  0  0  0  0  0  0  0  0
    1.3670   68.6580   66.2960 C   0  0  0  0  0  0  0  0  0  0  0  0
    3.4100   69.0380   64.8200 C   0  0  0  0  0  0  0  0  0  0  0  0
    4.7530   69.4320   64.6550 C   0  0  0  0  0  0  0  0  0  0  0  0
    5.4750   69.8620   65.7780 C   0  0  0  0  0  0  0  0  0  0  0  0
    5.4350   69.4080   63.3150 C   0  0  0  0  0  0  0  0  0  0  0  0
    2.4980   68.5030   63.4430 Cl  0  0  0  0  0  0  0  0  0  0  0  0
    5.6260   70.3230   68.0830 O   0  0  0  0  0  0  0  0  0  0  0  0
    3.0848   69.5418   68.1936 H   0  0  0  0  0  0  0  0  0  0  0  0
    1.1545   68.5964   67.3735 H   0  0  0  0  0  0  0  0  0  0  0  0
    0.7000   69.3998   65.8325 H   0  0  0  0  0  0  0  0  0  0  0  0
    1.2000   67.6745   65.8325 H   0  0  0  0  0  0  0  0  0  0  0  0
    6.5240   70.1740   65.6674 H   0  0  0  0  0  0  0  0  0  0  0  0
    6.5249   69.3696   63.4589 H   0  0  0  0  0  0  0  0  0  0  0  0
    5.1079   68.5208   62.7529 H   0  0  0  0  0  0  0  0  0  0  0  0
    5.1711   70.3160   62.7529 H   0  0  0  0  0  0  0  0  0  0  0  0
    6.5673   70.5942   67.9400 H   0  0  0  0  0  0  0  0  0  0  0  0
  2  1  2  0
  3  2  1  0
  4  3  1  0
  5  3  2  0
  6  5  1  0
  7  6  2  0
  7  1  1  0
  8  6  1  0
  9  5  1  0
 10  1  1  0
  2 11  1  0
  4 12  1  0
  4 13  1  0
  4 14  1  0
  7 15  1  0
  8 16  1  0
  8 17  1  0
  8 18  1  0
 10 19  1  0
M  END
>  <score>  (9) 
-6.495

$$$$
