=
     RDKit          3D

 39 39  0  0  0  0  0  0  0  0999 V2000
    2.9570   69.1730   65.3060 N   0  0  0  0  0  0  0  0  0  0  0  0
    2.9240   69.3950   66.6720 C   0  0  0  0  0  0  0  0  0  0  0  0
    1.9120   69.1750   67.3320 O   0  0  0  0  0  0  0  0  0  0  0  0
    4.1750   69.8800   67.3140 C   0  0  0  0  0  0  0  0  0  0  0  0
    4.1100   70.3380   68.6340 C   0  0  0  0  0  0  0  0  0  0  0  0
    5.2660   70.7900   69.2770 C   0  0  0  0  0  0  0  0  0  0  0  0
    6.4870   70.8420   68.6000 C   0  0  0  0  0  0  0  0  0  0  0  0
    6.5510   70.3480   67.2950 C   0  0  0  0  0  0  0  0  0  0  0  0
    5.4010   69.8900   66.6420 C   0  0  0  0  0  0  0  0  0  0  0  0
    7.6580   71.1690   69.2870 N   0  0  0  0  0  0  0  0  0  0  0  0
    1.8370   68.5120   64.6640 C   0  0  0  0  0  0  0  0  0  0  0  0
    2.2610   67.4980   63.5760 C   0  0  0  0  0  0  0  0  0  0  0  0
    3.4060   66.5940   64.0410 N   0  0  0  0  0  4  0  0  0  0  0  0
    3.9790   64.1880   64.6410 C   0  0  0  0  0  0  0  0  0  0  0  0
    2.9140   65.2700   64.6160 C   0  0  0  0  0  0  0  0  0  0  0  0
    4.4770   66.4750   62.9740 C   0  0  0  0  0  0  0  0  0  0  0  0
    4.9950   67.8380   62.5570 C   0  0  0  0  0  0  0  0  0  0  0  0
    3.7701   69.4747   64.7503 H   0  0  0  0  0  0  0  0  0  0  0  0
    3.1477   70.3425   69.1669 H   0  0  0  0  0  0  0  0  0  0  0  0
    5.2137   71.1085   70.3286 H   0  0  0  0  0  0  0  0  0  0  0  0
    7.5189   70.3185   66.7732 H   0  0  0  0  0  0  0  0  0  0  0  0
    5.4616   69.5384   65.6015 H   0  0  0  0  0  0  0  0  0  0  0  0
    8.5564   71.2064   68.7847 H   0  0  0  0  0  0  0  0  0  0  0  0
    7.6233   71.3728   70.2960 H   0  0  0  0  0  0  0  0  0  0  0  0
    1.2609   67.9769   65.4332 H   0  0  0  0  0  0  0  0  0  0  0  0
    1.2429   69.2922   64.1656 H   0  0  0  0  0  0  0  0  0  0  0  0
    1.3950   66.8696   63.3210 H   0  0  0  0  0  0  0  0  0  0  0  0
    2.6140   68.0674   62.7035 H   0  0  0  0  0  0  0  0  0  0  0  0
    3.8689   67.0468   64.8420 H   0  0  0  0  0  0  0  0  0  0  0  0
    4.2242   63.9389   65.6840 H   0  0  0  0  0  0  0  0  0  0  0  0
    3.6021   63.2906   64.1286 H   0  0  0  0  0  0  0  0  0  0  0  0
    4.8823   64.5507   64.1286 H   0  0  0  0  0  0  0  0  0  0  0  0
    2.0719   64.9157   64.0033 H   0  0  0  0  0  0  0  0  0  0  0  0
    2.6202   65.4592   65.6590 H   0  0  0  0  0  0  0  0  0  0  0  0
    5.3130   65.8802   63.3706 H   0  0  0  0  0  0  0  0  0  0  0  0
    4.0354   65.9874   62.0924 H   0  0  0  0  0  0  0  0  0  0  0  0
    5.2215   68.4341   63.4533 H   0  0  0  0  0  0  0  0  0  0  0  0
    5.9091   67.7152   61.9576 H   0  0  0  0  0  0  0  0  0  0  0  0
    4.2300   68.3533   61.9576 H   0  0  0  0  0  0  0  0  0  0  0  0
  2  1  1  0
  3  2  2  0
  4  2  1  0
  5  4  2  0
  6  5  1  0
  7  6  2  0
  8  7  1  0
  9  4  1  0
  9  8  2  0
 10  7  1  0
 11  1  1  0
 12 11  1  0
 13 12  1  0
 15 14  1  0
 15 13  1  0
 16 13  1  0
 17 16  1  0
  1 18  1  0
  5 19  1  0
  6 20  1  0
  8 21  1  0
  9 22  1  0
 10 23  1  0
 10 24  1  0
 11 25  1  0
 11 26  1  0
 12 27  1  0
 12 28  1  0
 13 29  1  0
 14 30  1  0
 14 31  1  0
 14 32  1  0
 15 33  1  0
 15 34  1  0
 16 35  1  0
 16 36  1  0
 17 37  1  0
 17 38  1  0
 17 39  1  0
M  CHG  1  13   1
M  END
>  <score>  (1) 
-7.432

$$$$
=
     RDKit          3D

 39 39  0  0  0  0  0  0  0  0999 V2000
    2.4370   69.0160   65.7720 N   0  0  0  0  0  0  0  0  0  0  0  0
    2.5070   69.3630   67.1110 C   0  0  0  0  0  0  0  0  0  0  0  0
    1.5370   69.2480   67.8540 O   0  0  0  0  0  0  0  0  0  0  0  0
    3.8160   69.8520   67.6200 C   0  0  0  0  0  0  0  0  0  0  0  0
    3.8820   70.3250   68.9350 C   0  0  0  0  0  0  0  0  0  0  0  0
    5.0970   70.7810   69.4570 C   0  0  0  0  0  0  0  0  0  0  0  0
    6.2460   70.8210   68.6620 C   0  0  0  0  0  0  0  0  0  0  0  0
    6.1790   70.3130   67.3630 C   0  0  0  0  0  0  0  0  0  0  0  0
    4.9710   69.8510   66.8310 C   0  0  0  0  0  0  0  0  0  0  0  0
    7.4790   71.1540   69.2260 N   0  0  0  0  0  0  0  0  0  0  0  0
    1.2530   68.3470   65.2700 C   0  0  0  0  0  0  0  0  0  0  0  0
    1.4450   67.7220   63.8690 C   0  0  0  0  0  0  0  0  0  0  0  0
    2.5560   68.4130   63.0740 N   0  0  0  0  0  4  0  0  0  0  0  0
    5.0850   68.3270   63.3570 C   0  0  0  0  0  0  0  0  0  0  0  0
    3.8240   67.5700   62.9790 C   0  0  0  0  0  0  0  0  0  0  0  0
    2.0350   68.9430   61.7520 C   0  0  0  0  0  0  0  0  0  0  0  0
    0.5800   69.3590   61.8600 C   0  0  0  0  0  0  0  0  0  0  0  0
    3.2197   69.2315   65.1381 H   0  0  0  0  0  0  0  0  0  0  0  0
    2.9767   70.3383   69.5596 H   0  0  0  0  0  0  0  0  0  0  0  0
    5.1488   71.1118   70.5048 H   0  0  0  0  0  0  0  0  0  0  0  0
    7.0906   70.2756   66.7486 H   0  0  0  0  0  0  0  0  0  0  0  0
    4.9292   69.4874   65.7937 H   0  0  0  0  0  0  0  0  0  0  0  0
    8.3237   71.1825   68.6373 H   0  0  0  0  0  0  0  0  0  0  0  0
    7.5439   71.3711   70.2308 H   0  0  0  0  0  0  0  0  0  0  0  0
    0.9805   67.5468   65.9738 H   0  0  0  0  0  0  0  0  0  0  0  0
    0.4649   69.1090   65.1791 H   0  0  0  0  0  0  0  0  0  0  0  0
    1.7029   66.6593   63.9877 H   0  0  0  0  0  0  0  0  0  0  0  0
    0.5044   67.8463   63.3123 H   0  0  0  0  0  0  0  0  0  0  0  0
    2.8586   69.2447   63.6010 H   0  0  0  0  0  0  0  0  0  0  0  0
    5.1681   68.3769   64.4527 H   0  0  0  0  0  0  0  0  0  0  0  0
    5.9624   67.8062   62.9460 H   0  0  0  0  0  0  0  0  0  0  0  0
    5.0379   69.3463   62.9460 H   0  0  0  0  0  0  0  0  0  0  0  0
    3.9288   67.2144   61.9434 H   0  0  0  0  0  0  0  0  0  0  0  0
    3.7166   66.7425   63.6957 H   0  0  0  0  0  0  0  0  0  0  0  0
    2.6358   69.8148   61.4537 H   0  0  0  0  0  0  0  0  0  0  0  0
    2.1124   68.1421   61.0020 H   0  0  0  0  0  0  0  0  0  0  0  0
    0.2993   69.4392   62.9206 H   0  0  0  0  0  0  0  0  0  0  0  0
    0.4398   70.3332   61.3689 H   0  0  0  0  0  0  0  0  0  0  0  0
   -0.0540   68.6061   61.3689 H   0  0  0  0  0  0  0  0  0  0  0  0
  2  1  1  0
  3  2  2  0
  4  2  1  0
  5  4  2  0
  6  5  1  0
  7  6  2  0
  8  7  1  0
  9  4  1  0
  9  8  2  0
 10  7  1  0
 11  1  1  0
 12 11  1  0
 13 12  1  0
 15 14  1  0
 15 13  1  0
 16 13  1  0
 17 16  1  0
  1 18  1  0
  5 19  1  0
  6 20  1  0
  8 21  1  0
  9 22  1  0
 10 23  1  0
 10 24  1  0
 11 25  1  0
 11 26  1  0
 12 27  1  0
 12 28  1  0
 13 29  1  0
 14 30  1  0
 14 31  1  0
 14 32  1  0
 15 33  1  0
 15 34  1  0
 16 35  1  0
 16 36  1  0
 17 37  1  0
 17 38  1  0
 17 39  1  0
M  CHG  1  13   1
M  END
>  <score>  (2) 
-7.042

$$$$
=
     RDKit          3D

 39 39  0  0  0  0  0  0  0  0999 V2000
    2.0520   68.6690   66.2910 N   0  0  0  0  0  0  0  0  0  0  0  0
    3.2140   69.1510   65.7130 C   0  0  0  0  0  0  0  0  0  0  0  0
    4.1230   69.6170   66.3940 O   0  0  0  0  0  0  0  0  0  0  0  0
    3.3300   69.0510   64.2330 C   0  0  0  0  0  0  0  0  0  0  0  0
    2.1670   68.8240   63.4910 C   0  0  0  0  0  0  0  0  0  0  0  0
    2.2310   68.7360   62.0960 C   0  0  0  0  0  0  0  0  0  0  0  0
    3.4560   68.8190   61.4300 C   0  0  0  0  0  0  0  0  0  0  0  0
    4.6070   69.0830   62.1770 C   0  0  0  0  0  0  0  0  0  0  0  0
    4.5560   69.1760   63.5720 C   0  0  0  0  0  0  0  0  0  0  0  0
    3.4970   68.8620   60.0350 N   0  0  0  0  0  0  0  0  0  0  0  0
    1.9690   68.5550   67.7350 C   0  0  0  0  0  0  0  0  0  0  0  0
    0.5290   68.3300   68.2540 C   0  0  0  0  0  0  0  0  0  0  0  0
    0.2640   66.8660   68.6110 N   0  0  0  0  0  4  0  0  0  0  0  0
    0.4620   65.0810   70.4170 C   0  0  0  0  0  0  0  0  0  0  0  0
    0.8700   66.4690   69.9540 C   0  0  0  0  0  0  0  0  0  0  0  0
   -1.2010   66.5160   68.4380 C   0  0  0  0  0  0  0  0  0  0  0  0
   -1.7920   67.2050   67.2220 C   0  0  0  0  0  0  0  0  0  0  0  0
    1.2536   68.3938   65.7012 H   0  0  0  0  0  0  0  0  0  0  0  0
    1.2004   68.7144   64.0045 H   0  0  0  0  0  0  0  0  0  0  0  0
    1.3057   68.5998   61.5170 H   0  0  0  0  0  0  0  0  0  0  0  0
    5.5683   69.2199   61.6601 H   0  0  0  0  0  0  0  0  0  0  0  0
    5.4778   69.3470   64.1474 H   0  0  0  0  0  0  0  0  0  0  0  0
    4.4025   68.9232   59.5480 H   0  0  0  0  0  0  0  0  0  0  0  0
    2.6217   68.8325   59.4929 H   0  0  0  0  0  0  0  0  0  0  0  0
    2.5908   67.7053   68.0536 H   0  0  0  0  0  0  0  0  0  0  0  0
    2.3195   69.5090   68.1558 H   0  0  0  0  0  0  0  0  0  0  0  0
    0.3760   68.9466   69.1520 H   0  0  0  0  0  0  0  0  0  0  0  0
   -0.1670   68.6123   67.4503 H   0  0  0  0  0  0  0  0  0  0  0  0
    0.7669   66.2743   67.9344 H   0  0  0  0  0  0  0  0  0  0  0  0
    0.4527   65.0492   71.5165 H   0  0  0  0  0  0  0  0  0  0  0  0
   -0.5427   64.8476   70.0349 H   0  0  0  0  0  0  0  0  0  0  0  0
    1.1806   64.3410   70.0349 H   0  0  0  0  0  0  0  0  0  0  0  0
    0.5456   67.1979   70.7113 H   0  0  0  0  0  0  0  0  0  0  0  0
    1.9624   66.4587   69.8253 H   0  0  0  0  0  0  0  0  0  0  0  0
   -1.2973   65.4271   68.3151 H   0  0  0  0  0  0  0  0  0  0  0  0
   -1.7473   66.8565   69.3300 H   0  0  0  0  0  0  0  0  0  0  0  0
   -2.4759   68.0023   67.5486 H   0  0  0  0  0  0  0  0  0  0  0  0
   -0.9826   67.6408   66.6180 H   0  0  0  0  0  0  0  0  0  0  0  0
   -2.3460   66.4713   66.6180 H   0  0  0  0  0  0  0  0  0  0  0  0
  2  1  1  0
  3  2  2  0
  4  2  1  0
  5  4  2  0
  6  5  1  0
  7  6  2  0
  8  7  1  0
  9  4  1  0
  9  8  2  0
 10  7  1  0
 11  1  1  0
 12 11  1  0
 13 12  1  0
 15 14  1  0
 15 13  1  0
 16 13  1  0
 17 16  1  0
  1 18  1  0
  5 19  1  0
  6 20  1  0
  8 21  1  0
  9 22  1  0
 10 23  1  0
 10 24  1  0
 11 25  1  0
 11 26  1  0
 12 27  1  0
 12 28  1  0
 13 29  1  0
 14 30  1  0
 14 31  1  0
 14 32  1  0
 15 33  1  0
 15 34  1  0
 16 35  1  0
 16 36  1  0
 17 37  1  0
 17 38  1  0
 17 39  1  0
M  CHG  1  13   1
M  END
>  <score>  (3) 
-6.826

$$$$
=
     RDKit          3D

 39 39  0  0  0  0  0  0  0  0999 V2000
    0.1980   65.6090   69.6330 N   0  0  0  0  0  0  0  0  0  0  0  0
    0.5330   66.8450   69.1060 C   0  0  0  0  0  0  0  0  0  0  0  0
    1.5750   67.4130   69.4200 O   0  0  0  0  0  0  0  0  0  0  0  0
   -0.4060   67.4420   68.1200 C   0  0  0  0  0  0  0  0  0  0  0  0
   -1.6760   66.8720   67.9830 C   0  0  0  0  0  0  0  0  0  0  0  0
   -2.5930   67.4110   67.0760 C   0  0  0  0  0  0  0  0  0  0  0  0
   -2.2410   68.4870   66.2570 C   0  0  0  0  0  0  0  0  0  0  0  0
   -0.9840   69.0730   66.4260 C   0  0  0  0  0  0  0  0  0  0  0  0
   -0.0590   68.5450   67.3330 C   0  0  0  0  0  0  0  0  0  0  0  0
   -3.2010   69.1000   65.4500 N   0  0  0  0  0  0  0  0  0  0  0  0
    1.1670   64.8910   70.4380 C   0  0  0  0  0  0  0  0  0  0  0  0
    0.8800   63.3750   70.5420 C   0  0  0  0  0  0  0  0  0  0  0  0
    2.1550   62.5350   70.4300 N   0  0  0  0  0  4  0  0  0  0  0  0
    4.5830   63.3000   70.4120 C   0  0  0  0  0  0  0  0  0  0  0  0
    3.2640   63.2480   69.6620 C   0  0  0  0  0  0  0  0  0  0  0  0
    2.5630   61.9770   71.7790 C   0  0  0  0  0  0  0  0  0  0  0  0
    1.9040   60.6350   72.0440 C   0  0  0  0  0  0  0  0  0  0  0  0
   -0.7317   65.2031   69.4546 H   0  0  0  0  0  0  0  0  0  0  0  0
   -1.9537   65.9978   68.5902 H   0  0  0  0  0  0  0  0  0  0  0  0
   -3.6039   66.9829   67.0062 H   0  0  0  0  0  0  0  0  0  0  0  0
   -0.7176   69.9630   65.8370 H   0  0  0  0  0  0  0  0  0  0  0  0
    0.9396   68.9965   67.4271 H   0  0  0  0  0  0  0  0  0  0  0  0
   -2.9373   69.8929   64.8478 H   0  0  0  0  0  0  0  0  0  0  0  0
   -4.1730   68.7594   65.4568 H   0  0  0  0  0  0  0  0  0  0  0  0
    2.1619   65.0270   69.9890 H   0  0  0  0  0  0  0  0  0  0  0  0
    1.1095   65.3019   71.4567 H   0  0  0  0  0  0  0  0  0  0  0  0
    0.4053   63.1703   71.5130 H   0  0  0  0  0  0  0  0  0  0  0  0
    0.2196   63.0987   69.7068 H   0  0  0  0  0  0  0  0  0  0  0  0
    1.9478   61.7122   69.8461 H   0  0  0  0  0  0  0  0  0  0  0  0
    4.3896   63.2924   71.4948 H   0  0  0  0  0  0  0  0  0  0  0  0
    5.1929   62.4252   70.1423 H   0  0  0  0  0  0  0  0  0  0  0  0
    5.1221   64.2201   70.1423 H   0  0  0  0  0  0  0  0  0  0  0  0
    2.9388   64.2788   69.4576 H   0  0  0  0  0  0  0  0  0  0  0  0
    3.4387   62.6750   68.7394 H   0  0  0  0  0  0  0  0  0  0  0  0
    3.6554   61.8496   71.7984 H   0  0  0  0  0  0  0  0  0  0  0  0
    2.2391   62.6824   72.5585 H   0  0  0  0  0  0  0  0  0  0  0  0
    1.8246   60.4734   73.1292 H   0  0  0  0  0  0  0  0  0  0  0  0
    0.8988   60.6256   71.5974 H   0  0  0  0  0  0  0  0  0  0  0  0
    2.5112   59.8338   71.5974 H   0  0  0  0  0  0  0  0  0  0  0  0
  2  1  1  0
  3  2  2  0
  4  2  1  0
  5  4  2  0
  6  5  1  0
  7  6  2  0
  8  7  1  0
  9  4  1  0
  9  8  2  0
 10  7  1  0
 11  1  1  0
 12 11  1  0
 13 12  1  0
 15 14  1  0
 15 13  1  0
 16 13  1  0
 17 16  1  0
  1 18  1  0
  5 19  1  0
  6 20  1  0
  8 21  1  0
  9 22  1  0
 10 23  1  0
 10 24  1  0
 11 25  1  0
 11 26  1  0
 12 27  1  0
 12 28  1  0
 13 29  1  0
 14 30  1  0
 14 31  1  0
 14 32  1  0
 15 33  1  0
 15 34  1  0
 16 35  1  0
 16 36  1  0
 17 37  1  0
 17 38  1  0
 17 39  1  0
M  CHG  1  13   1
M  END
>  <score>  (4) 
-6.668

$$$$
=
     RDKit          3D

 39 39  0  0  0  0  0  0  0  0999 V2000
    1.4950   65.6410   69.9350 N   0  0  0  0  0  0  0  0  0  0  0  0
    1.2750   64.5730   70.7890 C   0  0  0  0  0  0  0  0  0  0  0  0
    0.1700   64.3670   71.2830 O   0  0  0  0  0  0  0  0  0  0  0  0
    2.4230   63.6680   71.0580 C   0  0  0  0  0  0  0  0  0  0  0  0
    3.5960   63.8450   70.3150 C   0  0  0  0  0  0  0  0  0  0  0  0
    4.7030   63.0230   70.5460 C   0  0  0  0  0  0  0  0  0  0  0  0
    4.6400   61.9840   71.4780 C   0  0  0  0  0  0  0  0  0  0  0  0
    3.4790   61.8380   72.2400 C   0  0  0  0  0  0  0  0  0  0  0  0
    2.3650   62.6560   72.0210 C   0  0  0  0  0  0  0  0  0  0  0  0
    5.7870   61.2540   71.7950 N   0  0  0  0  0  0  0  0  0  0  0  0
    0.3690   66.4330   69.4780 C   0  0  0  0  0  0  0  0  0  0  0  0
    0.7420   67.4650   68.3880 C   0  0  0  0  0  0  0  0  0  0  0  0
    0.0070   67.2070   67.0710 N   0  0  0  0  0  4  0  0  0  0  0  0
   -1.7130   68.6980   65.9300 C   0  0  0  0  0  0  0  0  0  0  0  0
   -1.4200   67.7480   67.0780 C   0  0  0  0  0  0  0  0  0  0  0  0
    0.8490   67.6290   65.8820 C   0  0  0  0  0  0  0  0  0  0  0  0
    1.9560   68.5790   66.3000 C   0  0  0  0  0  0  0  0  0  0  0  0
    2.4505   65.8710   69.6269 H   0  0  0  0  0  0  0  0  0  0  0  0
    3.6469   64.6320   69.5482 H   0  0  0  0  0  0  0  0  0  0  0  0
    5.6346   63.1963   69.9874 H   0  0  0  0  0  0  0  0  0  0  0  0
    3.4395   61.0680   73.0246 H   0  0  0  0  0  0  0  0  0  0  0  0
    1.4456   62.5032   72.6052 H   0  0  0  0  0  0  0  0  0  0  0  0
    5.7368   60.4887   72.4826 H   0  0  0  0  0  0  0  0  0  0  0  0
    6.6835   61.4807   71.3413 H   0  0  0  0  0  0  0  0  0  0  0  0
   -0.3914   65.7525   69.0674 H   0  0  0  0  0  0  0  0  0  0  0  0
   -0.0018   66.9986   70.3455 H   0  0  0  0  0  0  0  0  0  0  0  0
    0.4804   68.4708   68.7483 H   0  0  0  0  0  0  0  0  0  0  0  0
    1.8213   67.3766   68.1949 H   0  0  0  0  0  0  0  0  0  0  0  0
   -0.1204   66.1901   66.9677 H   0  0  0  0  0  0  0  0  0  0  0  0
   -2.0148   69.6765   66.3317 H   0  0  0  0  0  0  0  0  0  0  0  0
   -0.8100   68.8175   65.3134 H   0  0  0  0  0  0  0  0  0  0  0  0
   -2.5265   68.2881   65.3134 H   0  0  0  0  0  0  0  0  0  0  0  0
   -1.5845   68.2841   68.0243 H   0  0  0  0  0  0  0  0  0  0  0  0
   -2.0936   66.8858   66.9646 H   0  0  0  0  0  0  0  0  0  0  0  0
    1.2978   66.7346   65.4252 H   0  0  0  0  0  0  0  0  0  0  0  0
    0.1987   68.1485   65.1628 H   0  0  0  0  0  0  0  0  0  0  0  0
    2.0067   68.6225   67.3980 H   0  0  0  0  0  0  0  0  0  0  0  0
    2.9168   68.2200   65.9025 H   0  0  0  0  0  0  0  0  0  0  0  0
    1.7470   69.5831   65.9025 H   0  0  0  0  0  0  0  0  0  0  0  0
  2  1  1  0
  3  2  2  0
  4  2  1  0
  5  4  2  0
  6  5  1  0
  7  6  2  0
  8  7  1  0
  9  4  1  0
  9  8  2  0
 10  7  1  0
 11  1  1  0
 12 11  1  0
 13 12  1  0
 15 14  1  0
 15 13  1  0
 16 13  1  0
 17 16  1  0
  1 18  1  0
  5 19  1  0
  6 20  1  0
  8 21  1  0
  9 22  1  0
 10 23  1  0
 10 24  1  0
 11 25  1  0
 11 26  1  0
 12 27  1  0
 12 28  1  0
 13 29  1  0
 14 30  1  0
 14 31  1  0
 14 32  1  0
 15 33  1  0
 15 34  1  0
 16 35  1  0
 16 36  1  0
 17 37  1  0
 17 38  1  0
 17 39  1  0
M  CHG  1  13   1
M  END
>  <score>  (5) 
-6.583

$$$$
=
     RDKit          3D

 39 39  0  0  0  0  0  0  0  0999 V2000
    1.9780   69.2500   67.0100 N   0  0  0  0  0  0  0  0  0  0  0  0
    2.2920   68.1210   66.2720 C   0  0  0  0  0  0  0  0  0  0  0  0
    1.7740   67.0340   66.5140 O   0  0  0  0  0  0  0  0  0  0  0  0
    3.2570   68.2840   65.1530 C   0  0  0  0  0  0  0  0  0  0  0  0
    4.2550   69.2570   65.2750 C   0  0  0  0  0  0  0  0  0  0  0  0
    5.1910   69.4340   64.2510 C   0  0  0  0  0  0  0  0  0  0  0  0
    5.1130   68.6850   63.0740 C   0  0  0  0  0  0  0  0  0  0  0  0
    4.1360   67.6920   62.9760 C   0  0  0  0  0  0  0  0  0  0  0  0
    3.1960   67.5020   63.9950 C   0  0  0  0  0  0  0  0  0  0  0  0
    6.1230   68.7760   62.1150 N   0  0  0  0  0  0  0  0  0  0  0  0
    0.8970   69.1940   67.9750 C   0  0  0  0  0  0  0  0  0  0  0  0
   -0.4910   69.4980   67.3650 C   0  0  0  0  0  0  0  0  0  0  0  0
   -0.9920   68.3590   66.4720 N   0  0  0  0  0  4  0  0  0  0  0  0
   -1.3060   66.6370   68.3200 C   0  0  0  0  0  0  0  0  0  0  0  0
   -1.9570   67.4250   67.1970 C   0  0  0  0  0  0  0  0  0  0  0  0
   -1.4860   68.8860   65.1390 C   0  0  0  0  0  0  0  0  0  0  0  0
   -0.3500   69.0170   64.1420 C   0  0  0  0  0  0  0  0  0  0  0  0
    2.5081   70.1226   66.8745 H   0  0  0  0  0  0  0  0  0  0  0  0
    4.3035   69.8837   66.1777 H   0  0  0  0  0  0  0  0  0  0  0  0
    5.9980   70.1714   64.3736 H   0  0  0  0  0  0  0  0  0  0  0  0
    4.1049   67.0492   62.0839 H   0  0  0  0  0  0  0  0  0  0  0  0
    2.4109   66.7394   63.8856 H   0  0  0  0  0  0  0  0  0  0  0  0
    6.0620   68.2223   61.2486 H   0  0  0  0  0  0  0  0  0  0  0  0
    6.9294   69.3969   62.2737 H   0  0  0  0  0  0  0  0  0  0  0  0
    0.8719   68.1846   68.4115 H   0  0  0  0  0  0  0  0  0  0  0  0
    1.0959   69.9699   68.7290 H   0  0  0  0  0  0  0  0  0  0  0  0
   -1.2114   69.6507   68.1821 H   0  0  0  0  0  0  0  0  0  0  0  0
   -0.3961   70.3993   66.7416 H   0  0  0  0  0  0  0  0  0  0  0  0
   -0.1919   67.7513   66.2452 H   0  0  0  0  0  0  0  0  0  0  0  0
   -1.6373   67.0380   69.2892 H   0  0  0  0  0  0  0  0  0  0  0  0
   -1.5970   65.5790   68.2421 H   0  0  0  0  0  0  0  0  0  0  0  0
   -0.2121   66.7231   68.2421 H   0  0  0  0  0  0  0  0  0  0  0  0
   -2.3693   66.7140   66.4659 H   0  0  0  0  0  0  0  0  0  0  0  0
   -2.7367   68.0537   67.6517 H   0  0  0  0  0  0  0  0  0  0  0  0
   -2.2381   68.1918   64.7359 H   0  0  0  0  0  0  0  0  0  0  0  0
   -1.9226   69.8827   65.3003 H   0  0  0  0  0  0  0  0  0  0  0  0
    0.6016   69.1267   64.6827 H   0  0  0  0  0  0  0  0  0  0  0  0
   -0.3111   68.1174   63.5102 H   0  0  0  0  0  0  0  0  0  0  0  0
   -0.5169   69.9019   63.5102 H   0  0  0  0  0  0  0  0  0  0  0  0
  2  1  1  0
  3  2  2  0
  4  2  1  0
  5  4  2  0
  6  5  1  0
  7  6  2  0
  8  7  1  0
  9  4  1  0
  9  8  2  0
 10  7  1  0
 11  1  1  0
 12 11  1  0
 13 12  1  0
 15 14  1  0
 15 13  1  0
 16 13  1  0
 17 16  1  0
  1 18  1  0
  5 19  1  0
  6 20  1  0
  8 21  1  0
  9 22  1  0
 10 23  1  0
 10 24  1  0
 11 25  1  0
 11 26  1  0
 12 27  1  0
 12 28  1  0
 13 29  1  0
 14 30  1  0
 14 31  1  0
 14 32  1  0
 15 33  1  0
 15 34  1  0
 16 35  1  0
 16 36  1  0
 17 37  1  0
 17 38  1  0
 17 39  1  0
M  CHG  1  13   1
M  END
>  <score>  (6) 
-6.42

$$$$
=
     RDKit          3D

 39 39  0  0  0  0  0  0  0  0999 V2000
    1.1270   68.6290   64.9950 N   0  0  0  0  0  0  0  0  0  0  0  0
   -0.0850   68.3230   65.5930 C   0  0  0  0  0  0  0  0  0  0  0  0
   -1.1510   68.5300   65.0210 O   0  0  0  0  0  0  0  0  0  0  0  0
   -0.0390   67.7020   66.9430 C   0  0  0  0  0  0  0  0  0  0  0  0
    1.1530   67.7810   67.6710 C   0  0  0  0  0  0  0  0  0  0  0  0
    1.2330   67.2220   68.9500 C   0  0  0  0  0  0  0  0  0  0  0  0
    0.1480   66.5320   69.4980 C   0  0  0  0  0  0  0  0  0  0  0  0
   -1.0490   66.4900   68.7800 C   0  0  0  0  0  0  0  0  0  0  0  0
   -1.1430   67.0480   67.5010 C   0  0  0  0  0  0  0  0  0  0  0  0
    0.1920   66.0920   70.8220 N   0  0  0  0  0  0  0  0  0  0  0  0
    1.1510   69.0440   63.6060 C   0  0  0  0  0  0  0  0  0  0  0  0
    2.3970   68.5480   62.8360 C   0  0  0  0  0  0  0  0  0  0  0  0
    3.5450   68.1690   63.7750 N   0  0  0  0  0  4  0  0  0  0  0  0
    3.3330   65.7270   64.4650 C   0  0  0  0  0  0  0  0  0  0  0  0
    4.0270   66.7360   63.5660 C   0  0  0  0  0  0  0  0  0  0  0  0
    4.6350   69.2230   63.7610 C   0  0  0  0  0  0  0  0  0  0  0  0
    5.4280   69.1790   62.4680 C   0  0  0  0  0  0  0  0  0  0  0  0
    2.0031   68.5622   65.5325 H   0  0  0  0  0  0  0  0  0  0  0  0
    2.0293   68.2840   67.2362 H   0  0  0  0  0  0  0  0  0  0  0  0
    2.1607   67.3264   69.5318 H   0  0  0  0  0  0  0  0  0  0  0  0
   -1.9320   66.0104   69.2275 H   0  0  0  0  0  0  0  0  0  0  0  0
   -2.0831   66.9729   66.9348 H   0  0  0  0  0  0  0  0  0  0  0  0
   -0.6093   65.5838   71.2227 H   0  0  0  0  0  0  0  0  0  0  0  0
    1.0258   66.2755   71.3982 H   0  0  0  0  0  0  0  0  0  0  0  0
    0.2535   68.6476   63.1085 H   0  0  0  0  0  0  0  0  0  0  0  0
    1.1813   70.1435   63.5971 H   0  0  0  0  0  0  0  0  0  0  0  0
    2.1183   67.6645   62.2429 H   0  0  0  0  0  0  0  0  0  0  0  0
    2.7448   69.3693   62.1923 H   0  0  0  0  0  0  0  0  0  0  0  0
    3.1835   68.1642   64.7395 H   0  0  0  0  0  0  0  0  0  0  0  0
    3.5133   65.9891   65.5180 H   0  0  0  0  0  0  0  0  0  0  0  0
    2.2516   65.7396   64.2640 H   0  0  0  0  0  0  0  0  0  0  0  0
    3.7316   64.7217   64.2640 H   0  0  0  0  0  0  0  0  0  0  0  0
    5.1074   66.6987   63.7695 H   0  0  0  0  0  0  0  0  0  0  0  0
    3.7889   66.4623   62.5275 H   0  0  0  0  0  0  0  0  0  0  0  0
    4.1742   70.2164   63.8651 H   0  0  0  0  0  0  0  0  0  0  0  0
    5.3220   69.0231   64.5965 H   0  0  0  0  0  0  0  0  0  0  0  0
    6.5020   69.1194   62.6984 H   0  0  0  0  0  0  0  0  0  0  0  0
    5.1287   68.2961   61.8842 H   0  0  0  0  0  0  0  0  0  0  0  0
    5.2282   70.0896   61.8842 H   0  0  0  0  0  0  0  0  0  0  0  0
  2  1  1  0
  3  2  2  0
  4  2  1  0
  5  4  2  0
  6  5  1  0
  7  6  2  0
  8  7  1  0
  9  4  1  0
  9  8  2  0
 10  7  1  0
 11  1  1  0
 12 11  1  0
 13 12  1  0
 15 14  1  0
 15 13  1  0
 16 13  1  0
 17 16  1  0
  1 18  1  0
  5 19  1  0
  6 20  1  0
  8 21  1  0
  9 22  1  0
 10 23  1  0
 10 24  1  0
 11 25  1  0
 11 26  1  0
 12 27  1  0
 12 28  1  0
 13 29  1  0
 14 30  1  0
 14 31  1  0
 14 32  1  0
 15 33  1  0
 15 34  1  0
 16 35  1  0
 16 36  1  0
 17 37  1  0
 17 38  1  0
 17 39  1  0
M  CHG  1  13   1
M  END
>  <score>  (7) 
-6.397

$$$$
=
     RDKit          3D

 39 39  0  0  0  0  0  0  0  0999 V2000
    0.7590   64.5970   69.8980 N   0  0  0  0  0  0  0  0  0  0  0  0
    0.2150   65.8490   70.1310 C   0  0  0  0  0  0  0  0  0  0  0  0
    0.0220   66.2600   71.2720 O   0  0  0  0  0  0  0  0  0  0  0  0
   -0.0950   66.6880   68.9430 C   0  0  0  0  0  0  0  0  0  0  0  0
   -1.3560   66.5580   68.3500 C   0  0  0  0  0  0  0  0  0  0  0  0
   -1.6920   67.3390   67.2390 C   0  0  0  0  0  0  0  0  0  0  0  0
   -0.7630   68.2160   66.6740 C   0  0  0  0  0  0  0  0  0  0  0  0
    0.4800   68.3660   67.2950 C   0  0  0  0  0  0  0  0  0  0  0  0
    0.8270   67.5930   68.4090 C   0  0  0  0  0  0  0  0  0  0  0  0
   -1.1470   69.0830   65.6500 N   0  0  0  0  0  0  0  0  0  0  0  0
    1.2680   63.8220   71.0140 C   0  0  0  0  0  0  0  0  0  0  0  0
    2.8090   63.6920   71.0230 C   0  0  0  0  0  0  0  0  0  0  0  0
    3.2680   62.2390   70.8790 N   0  0  0  0  0  4  0  0  0  0  0  0
    3.2310   61.5790   73.3380 C   0  0  0  0  0  0  0  0  0  0  0  0
    2.6750   61.3260   71.9480 C   0  0  0  0  0  0  0  0  0  0  0  0
    3.1050   61.7520   69.4530 C   0  0  0  0  0  0  0  0  0  0  0  0
    3.7070   62.7310   68.4630 C   0  0  0  0  0  0  0  0  0  0  0  0
    0.8019   64.2192   68.9407 H   0  0  0  0  0  0  0  0  0  0  0  0
   -2.0837   65.8410   68.7579 H   0  0  0  0  0  0  0  0  0  0  0  0
   -2.6998   67.2616   66.8051 H   0  0  0  0  0  0  0  0  0  0  0  0
    1.1964   69.1026   66.9024 H   0  0  0  0  0  0  0  0  0  0  0  0
    1.8233   67.6974   68.8635 H   0  0  0  0  0  0  0  0  0  0  0  0
   -0.4588   69.7280   65.2362 H   0  0  0  0  0  0  0  0  0  0  0  0
   -2.1186   69.0778   65.3081 H   0  0  0  0  0  0  0  0  0  0  0  0
    0.9543   64.3100   71.9486 H   0  0  0  0  0  0  0  0  0  0  0  0
    0.8582   62.8059   70.9159 H   0  0  0  0  0  0  0  0  0  0  0  0
    3.2187   64.2774   70.1866 H   0  0  0  0  0  0  0  0  0  0  0  0
    3.1736   64.0668   71.9908 H   0  0  0  0  0  0  0  0  0  0  0  0
    4.2804   62.2013   71.0648 H   0  0  0  0  0  0  0  0  0  0  0  0
    2.5011   61.2469   74.0909 H   0  0  0  0  0  0  0  0  0  0  0  0
    4.1694   61.0192   73.4651 H   0  0  0  0  0  0  0  0  0  0  0  0
    3.4254   62.6542   73.4651 H   0  0  0  0  0  0  0  0  0  0  0  0
    2.8887   60.2828   71.6723 H   0  0  0  0  0  0  0  0  0  0  0  0
    1.5957   61.5345   71.9887 H   0  0  0  0  0  0  0  0  0  0  0  0
    3.6087   60.7799   69.3468 H   0  0  0  0  0  0  0  0  0  0  0  0
    2.0300   61.6593   69.2390 H   0  0  0  0  0  0  0  0  0  0  0  0
    4.2071   63.5442   69.0095 H   0  0  0  0  0  0  0  0  0  0  0  0
    4.4403   62.2089   67.8308 H   0  0  0  0  0  0  0  0  0  0  0  0
    2.9102   63.1498   67.8308 H   0  0  0  0  0  0  0  0  0  0  0  0
  2  1  1  0
  3  2  2  0
  4  2  1  0
  5  4  2  0
  6  5  1  0
  7  6  2  0
  8  7  1  0
  9  4  1  0
  9  8  2  0
 10  7  1  0
 11  1  1  0
 12 11  1  0
 13 12  1  0
 15 14  1  0
 15 13  1  0
 16 13  1  0
 17 16  1  0
  1 18  1  0
  5 19  1  0
  6 20  1  0
  8 21  1  0
  9 22  1  0
 10 23  1  0
 10 24  1  0
 11 25  1  0
 11 26  1  0
 12 27  1  0
 12 28  1  0
 13 29  1  0
 14 30  1  0
 14 31  1  0
 14 32  1  0
 15 33  1  0
 15 34  1  0
 16 35  1  0
 16 36  1  0
 17 37  1  0
 17 38  1  0
 17 39  1  0
M  CHG  1  13   1
M  END
>  <score>  (8) 
-6.26

$$$$
=
     RDKit          3D

 39 39  0  0  0  0  0  0  0  0999 V2000
    1.2400   64.6400   70.2140 N   0  0  0  0  0  0  0  0  0  0  0  0
    1.0050   63.6600   71.1640 C   0  0  0  0  0  0  0  0  0  0  0  0
    0.2110   63.8380   72.0830 O   0  0  0  0  0  0  0  0  0  0  0  0
    1.7290   62.3700   71.0050 C   0  0  0  0  0  0  0  0  0  0  0  0
    1.6040   61.4110   72.0160 C   0  0  0  0  0  0  0  0  0  0  0  0
    2.2580   60.1800   71.8990 C   0  0  0  0  0  0  0  0  0  0  0  0
    3.0840   59.9110   70.8050 C   0  0  0  0  0  0  0  0  0  0  0  0
    3.1740   60.8600   69.7840 C   0  0  0  0  0  0  0  0  0  0  0  0
    2.5220   62.0930   69.8880 C   0  0  0  0  0  0  0  0  0  0  0  0
    3.6270   58.6360   70.6320 N   0  0  0  0  0  0  0  0  0  0  0  0
    0.4160   65.8330   70.2010 C   0  0  0  0  0  0  0  0  0  0  0  0
    0.9890   66.9690   69.3210 C   0  0  0  0  0  0  0  0  0  0  0  0
    0.1830   67.1670   68.0350 N   0  0  0  0  0  4  0  0  0  0  0  0
   -2.2350   67.4450   67.2880 C   0  0  0  0  0  0  0  0  0  0  0  0
   -1.2570   66.6790   68.1620 C   0  0  0  0  0  0  0  0  0  0  0  0
    0.3400   68.5790   67.5030 C   0  0  0  0  0  0  0  0  0  0  0  0
    1.3680   68.6370   66.3890 C   0  0  0  0  0  0  0  0  0  0  0  0
    1.9940   64.5223   69.5223 H   0  0  0  0  0  0  0  0  0  0  0  0
    0.9908   61.6252   72.9038 H   0  0  0  0  0  0  0  0  0  0  0  0
    2.1203   59.4150   72.6774 H   0  0  0  0  0  0  0  0  0  0  0  0
    3.7663   60.6343   68.8850 H   0  0  0  0  0  0  0  0  0  0  0  0
    2.6332   62.8437   69.0917 H   0  0  0  0  0  0  0  0  0  0  0  0
    4.2357   58.4407   69.8244 H   0  0  0  0  0  0  0  0  0  0  0  0
    3.4188   57.8910   71.3120 H   0  0  0  0  0  0  0  0  0  0  0  0
   -0.5796   65.5644   69.8181 H   0  0  0  0  0  0  0  0  0  0  0  0
    0.3778   66.2112   71.2332 H   0  0  0  0  0  0  0  0  0  0  0  0
    0.9726   67.9059   69.8971 H   0  0  0  0  0  0  0  0  0  0  0  0
    2.0148   66.6914   69.0371 H   0  0  0  0  0  0  0  0  0  0  0  0
    0.5812   66.5557   67.3079 H   0  0  0  0  0  0  0  0  0  0  0  0
   -2.9409   67.9979   67.9252 H   0  0  0  0  0  0  0  0  0  0  0  0
   -1.6824   68.1530   66.6529 H   0  0  0  0  0  0  0  0  0  0  0  0
   -2.7900   66.7389   66.6529 H   0  0  0  0  0  0  0  0  0  0  0  0
   -1.5698   66.7861   69.2111 H   0  0  0  0  0  0  0  0  0  0  0  0
   -1.2747   65.6315   67.8265 H   0  0  0  0  0  0  0  0  0  0  0  0
   -0.6291   68.9255   67.1147 H   0  0  0  0  0  0  0  0  0  0  0  0
    0.6826   69.2239   68.3256 H   0  0  0  0  0  0  0  0  0  0  0  0
    2.3769   68.6939   66.8237 H   0  0  0  0  0  0  0  0  0  0  0  0
    1.2869   67.7328   65.7678 H   0  0  0  0  0  0  0  0  0  0  0  0
    1.1857   69.5263   65.7678 H   0  0  0  0  0  0  0  0  0  0  0  0
  2  1  1  0
  3  2  2  0
  4  2  1  0
  5  4  2  0
  6  5  1  0
  7  6  2  0
  8  7  1  0
  9  4  1  0
  9  8  2  0
 10  7  1  0
 11  1  1  0
 12 11  1  0
 13 12  1  0
 15 14  1  0
 15 13  1  0
 16 13  1  0
 17 16  1  0
  1 18  1  0
  5 19  1  0
  6 20  1  0
  8 21  1  0
  9 22  1  0
 10 23  1  0
 10 24  1  0
 11 25  1  0
 11 26  1  0
 12 27  1  0
 12 28  1  0
 13 29  1  0
 14 30  1  0
 14 31  1  0
 14 32  1  0
 15 33  1  0
 15 34  1  0
 16 35  1  0
 16 36  1  0
 17 37  1  0
 17 38  1  0
 17 39  1  0
M  CHG  1  13   1
M  END
>  <score>  (9) 
-6.229

$$$$
