=
     RDKit          3D

 67 71  0  0  0  0  0  0  0  0999 V2000
    0.9890   66.5170   69.8180 C   0  0  0  0  0  0  0  0  0  0  0  0
    0.4520   64.5520   71.7820 O   0  0  0  0  0  0  0  0  0  0  0  0
    1.2020   64.2720   70.8490 C   0  0  0  0  0  0  0  0  0  0  0  0
    1.5090   65.1660   69.8550 N   0  0  0  0  0  0  0  0  0  0  0  0
    1.8440   62.9230   70.7430 C   0  0  0  0  0  0  0  0  0  0  0  0
    1.5940   62.0590   71.7420 C   0  0  0  0  0  0  0  0  0  0  0  0
    2.1670   60.7240   71.7340 C   0  0  0  0  0  0  0  0  0  0  0  0
    1.9280   59.8030   72.7570 C   0  0  0  0  0  0  0  0  0  0  0  0
    2.4980   58.5220   72.7160 C   0  0  0  0  0  0  0  0  0  0  0  0
    3.3150   58.1690   71.6380 C   0  0  0  0  0  0  0  0  0  0  0  0
    3.5600   59.0870   70.6130 C   0  0  0  0  0  0  0  0  0  0  0  0
    2.9820   60.3500   70.6770 C   0  0  0  0  0  0  0  0  0  0  0  0
    3.2500   61.2450   69.6270 O   0  0  0  0  0  0  0  0  0  0  0  0
    2.7140   62.5290   69.6100 C   0  0  0  0  0  0  0  0  0  0  0  0
    2.9640   63.2970   68.6830 O   0  0  0  0  0  0  0  0  0  0  0  0
    2.1770   57.7300   73.7810 O   0  0  0  0  0  0  0  0  0  0  0  0
    1.3840   56.5800   73.5400 C   0  0  0  0  0  0  0  0  0  0  0  0
    0.5760   56.8220   72.4840 F   0  0  0  0  0  0  0  0  0  0  0  0
    0.6070   56.2940   74.6070 F   0  0  0  0  0  0  0  0  0  0  0  0
    2.1540   55.5120   73.2440 F   0  0  0  0  0  0  0  0  0  0  0  0
   -0.3500   66.6070   69.0840 C   0  0  0  0  0  0  0  0  0  0  0  0
   -0.3930   67.7390   68.0530 C   0  0  0  0  0  0  0  0  0  0  0  0
   -0.2610   67.2500   66.6080 C   0  0  0  0  0  0  0  0  0  0  0  0
    1.1620   67.3580   66.0560 C   0  0  0  0  0  0  0  0  0  0  0  0
    1.3920   68.7380   65.6050 N   0  0  0  0  0  0  0  0  0  0  0  0
    2.7790   69.0610   65.5940 C   0  0  0  0  0  0  0  0  0  0  0  0
    3.4830   68.9690   64.3860 C   0  0  0  0  0  0  0  0  0  0  0  0
    2.8830   68.4880   63.0900 C   0  0  0  0  0  0  0  0  0  0  0  0
    3.8390   67.5550   62.3390 C   0  0  0  0  0  0  0  0  0  0  0  0
    5.3110   67.9910   62.3520 C   0  0  0  0  0  0  0  0  0  0  0  0
    5.5660   69.3170   63.0640 C   0  0  0  0  0  0  0  0  0  0  0  0
    4.8170   69.3710   64.3690 C   0  0  0  0  0  0  0  0  0  0  0  0
    5.4730   69.8390   65.4520 N   0  0  0  0  0  0  0  0  0  0  0  0
    4.8040   69.9240   66.6110 C   0  0  0  0  0  0  0  0  0  0  0  0
    3.4450   69.5590   66.7500 C   0  0  0  0  0  0  0  0  0  0  0  0
    2.8350   69.7170   68.0220 C   0  0  0  0  0  0  0  0  0  0  0  0
    3.5460   70.2090   69.1160 C   0  0  0  0  0  0  0  0  0  0  0  0
    4.8800   70.5540   68.9630 C   0  0  0  0  0  0  0  0  0  0  0  0
    5.4900   70.4100   67.7150 C   0  0  0  0  0  0  0  0  0  0  0  0
    0.8503   66.8704   70.8504 H   0  0  0  0  0  0  0  0  0  0  0  0
    1.7129   67.1400   69.2723 H   0  0  0  0  0  0  0  0  0  0  0  0
    2.1392   64.8620   69.0992 H   0  0  0  0  0  0  0  0  0  0  0  0
    0.9470   62.3669   72.5766 H   0  0  0  0  0  0  0  0  0  0  0  0
    1.2856   60.0856   73.6041 H   0  0  0  0  0  0  0  0  0  0  0  0
    3.7660   57.1666   71.5964 H   0  0  0  0  0  0  0  0  0  0  0  0
    4.2037   58.8131   69.7641 H   0  0  0  0  0  0  0  0  0  0  0  0
   -0.5302   65.6537   68.5655 H   0  0  0  0  0  0  0  0  0  0  0  0
   -1.1240   66.8181   69.8366 H   0  0  0  0  0  0  0  0  0  0  0  0
   -1.3518   68.2683   68.1559 H   0  0  0  0  0  0  0  0  0  0  0  0
    0.4671   68.3946   68.2541 H   0  0  0  0  0  0  0  0  0  0  0  0
   -0.5714   66.1955   66.5673 H   0  0  0  0  0  0  0  0  0  0  0  0
   -0.8992   67.8963   65.9876 H   0  0  0  0  0  0  0  0  0  0  0  0
    1.8848   67.1015   66.8445 H   0  0  0  0  0  0  0  0  0  0  0  0
    1.2894   66.6632   65.2127 H   0  0  0  0  0  0  0  0  0  0  0  0
    0.6433   69.3901   65.3311 H   0  0  0  0  0  0  0  0  0  0  0  0
    1.9514   67.9450   63.3075 H   0  0  0  0  0  0  0  0  0  0  0  0
    2.6871   69.3644   62.4548 H   0  0  0  0  0  0  0  0  0  0  0  0
    3.7740   66.5576   62.7982 H   0  0  0  0  0  0  0  0  0  0  0  0
    3.5218   67.5710   61.2858 H   0  0  0  0  0  0  0  0  0  0  0  0
    5.8974   67.2098   62.8578 H   0  0  0  0  0  0  0  0  0  0  0  0
    5.6068   68.1346   61.3023 H   0  0  0  0  0  0  0  0  0  0  0  0
    6.6433   69.4201   63.2611 H   0  0  0  0  0  0  0  0  0  0  0  0
    5.2164   70.1378   62.4205 H   0  0  0  0  0  0  0  0  0  0  0  0
    1.7766   69.4449   68.1476 H   0  0  0  0  0  0  0  0  0  0  0  0
    3.0524   70.3225   70.0925 H   0  0  0  0  0  0  0  0  0  0  0  0
    5.4541   70.9386   69.8188 H   0  0  0  0  0  0  0  0  0  0  0  0
    6.5477   70.6907   67.6036 H   0  0  0  0  0  0  0  0  0  0  0  0
  3  2  2  0
  4  3  1  0
  4  1  1  0
  5  3  1  0
  6  5  2  0
  7  6  1  0
  8  7  2  0
  9  8  1  0
 10  9  2  0
 11 10  1  0
 12 11  2  0
 12  7  1  0
 13 12  1  0
 14 13  1  0
 14  5  1  0
 15 14  2  0
 16  9  1  0
 17 16  1  0
 18 17  1  0
 19 17  1  0
 20 17  1  0
 21  1  1  0
 22 21  1  0
 23 22  1  0
 24 23  1  0
 25 24  1  0
 26 25  1  0
 27 26  1  0
 28 27  1  0
 29 28  1  0
 30 29  1  0
 31 30  1  0
 32 27  2  0
 32 31  1  0
 33 32  1  0
 34 33  2  0
 35 34  1  0
 35 26  2  0
 36 35  1  0
 37 36  2  0
 38 37  1  0
 39 38  2  0
 39 34  1  0
  1 40  1  0
  1 41  1  0
  4 42  1  0
  6 43  1  0
  8 44  1  0
 10 45  1  0
 11 46  1  0
 21 47  1  0
 21 48  1  0
 22 49  1  0
 22 50  1  0
 23 51  1  0
 23 52  1  0
 24 53  1  0
 24 54  1  0
 25 55  1  0
 28 56  1  0
 28 57  1  0
 29 58  1  0
 29 59  1  0
 30 60  1  0
 30 61  1  0
 31 62  1  0
 31 63  1  0
 36 64  1  0
 37 65  1  0
 38 66  1  0
 39 67  1  0
M  END
>  <score>  (1) 
-12.671

$$$$
=
     RDKit          3D

 67 71  0  0  0  0  0  0  0  0999 V2000
    0.9100   66.4530   69.7480 C   0  0  0  0  0  0  0  0  0  0  0  0
    0.4690   64.5360   71.7820 O   0  0  0  0  0  0  0  0  0  0  0  0
    1.1920   64.2420   70.8340 C   0  0  0  0  0  0  0  0  0  0  0  0
    1.4520   65.1110   69.8060 N   0  0  0  0  0  0  0  0  0  0  0  0
    1.8510   62.8990   70.7430 C   0  0  0  0  0  0  0  0  0  0  0  0
    1.5900   62.0350   71.7380 C   0  0  0  0  0  0  0  0  0  0  0  0
    2.1790   60.7060   71.7460 C   0  0  0  0  0  0  0  0  0  0  0  0
    1.9280   59.7840   72.7650 C   0  0  0  0  0  0  0  0  0  0  0  0
    2.5140   58.5090   72.7380 C   0  0  0  0  0  0  0  0  0  0  0  0
    3.3580   58.1640   71.6790 C   0  0  0  0  0  0  0  0  0  0  0  0
    3.6130   59.0830   70.6570 C   0  0  0  0  0  0  0  0  0  0  0  0
    3.0190   60.3400   70.7060 C   0  0  0  0  0  0  0  0  0  0  0  0
    3.3000   61.2360   69.6610 O   0  0  0  0  0  0  0  0  0  0  0  0
    2.7500   62.5140   69.6300 C   0  0  0  0  0  0  0  0  0  0  0  0
    3.0100   63.2830   68.7070 O   0  0  0  0  0  0  0  0  0  0  0  0
    2.1790   57.7160   73.7990 O   0  0  0  0  0  0  0  0  0  0  0  0
    1.4280   56.5420   73.5390 C   0  0  0  0  0  0  0  0  0  0  0  0
    2.2410   55.6220   72.9760 F   0  0  0  0  0  0  0  0  0  0  0  0
    0.4180   56.7930   72.6790 F   0  0  0  0  0  0  0  0  0  0  0  0
    0.9300   56.0210   74.6800 F   0  0  0  0  0  0  0  0  0  0  0  0
   -0.4560   66.5010   69.0630 C   0  0  0  0  0  0  0  0  0  0  0  0
   -0.5620   67.6150   68.0160 C   0  0  0  0  0  0  0  0  0  0  0  0
   -0.1140   67.1780   66.6180 C   0  0  0  0  0  0  0  0  0  0  0  0
    1.3620   67.4680   66.3330 C   0  0  0  0  0  0  0  0  0  0  0  0
    1.5300   68.9150   66.1320 N   0  0  0  0  0  0  0  0  0  0  0  0
    2.8920   69.2540   65.8920 C   0  0  0  0  0  0  0  0  0  0  0  0
    3.6900   69.6460   66.9760 C   0  0  0  0  0  0  0  0  0  0  0  0
    3.1860   69.7950   68.3880 C   0  0  0  0  0  0  0  0  0  0  0  0
    3.7490   71.0530   69.0570 C   0  0  0  0  0  0  0  0  0  0  0  0
    5.2310   71.3300   68.7710 C   0  0  0  0  0  0  0  0  0  0  0  0
    5.9130   70.2670   67.9130 C   0  0  0  0  0  0  0  0  0  0  0  0
    5.0410   69.8900   66.7440 C   0  0  0  0  0  0  0  0  0  0  0  0
    5.6270   69.7770   65.5330 N   0  0  0  0  0  0  0  0  0  0  0  0
    4.8670   69.4060   64.4930 C   0  0  0  0  0  0  0  0  0  0  0  0
    3.4870   69.1180   64.6050 C   0  0  0  0  0  0  0  0  0  0  0  0
    2.7900   68.7110   63.4380 C   0  0  0  0  0  0  0  0  0  0  0  0
    3.4330   68.6010   62.2050 C   0  0  0  0  0  0  0  0  0  0  0  0
    4.7840   68.8960   62.1120 C   0  0  0  0  0  0  0  0  0  0  0  0
    5.4830   69.2920   63.2550 C   0  0  0  0  0  0  0  0  0  0  0  0
    0.8044   66.8359   70.7738 H   0  0  0  0  0  0  0  0  0  0  0  0
    1.6033   67.0694   69.1569 H   0  0  0  0  0  0  0  0  0  0  0  0
    2.0617   64.7946   69.0385 H   0  0  0  0  0  0  0  0  0  0  0  0
    0.9216   62.3372   72.5577 H   0  0  0  0  0  0  0  0  0  0  0  0
    1.2640   60.0602   73.5974 H   0  0  0  0  0  0  0  0  0  0  0  0
    3.8226   57.1674   71.6496 H   0  0  0  0  0  0  0  0  0  0  0  0
    4.2770   58.8148   69.8220 H   0  0  0  0  0  0  0  0  0  0  0  0
   -0.6334   65.5355   68.5667 H   0  0  0  0  0  0  0  0  0  0  0  0
   -1.2067   66.7073   69.8401 H   0  0  0  0  0  0  0  0  0  0  0  0
   -1.6106   67.9427   67.9600 H   0  0  0  0  0  0  0  0  0  0  0  0
    0.1096   68.4259   68.3344 H   0  0  0  0  0  0  0  0  0  0  0  0
   -0.2814   66.0951   66.5210 H   0  0  0  0  0  0  0  0  0  0  0  0
   -0.7042   67.7572   65.8926 H   0  0  0  0  0  0  0  0  0  0  0  0
    1.9747   67.1395   67.1855 H   0  0  0  0  0  0  0  0  0  0  0  0
    1.6823   66.9256   65.4313 H   0  0  0  0  0  0  0  0  0  0  0  0
    0.7592   69.5976   66.1612 H   0  0  0  0  0  0  0  0  0  0  0  0
    2.0881   69.8608   68.3703 H   0  0  0  0  0  0  0  0  0  0  0  0
    3.5173   68.9198   68.9661 H   0  0  0  0  0  0  0  0  0  0  0  0
    3.1660   71.9169   68.7051 H   0  0  0  0  0  0  0  0  0  0  0  0
    3.6705   70.8865   70.1415 H   0  0  0  0  0  0  0  0  0  0  0  0
    5.3069   72.2953   68.2490 H   0  0  0  0  0  0  0  0  0  0  0  0
    5.7457   71.3291   69.7431 H   0  0  0  0  0  0  0  0  0  0  0  0
    6.8685   70.6630   67.5385 H   0  0  0  0  0  0  0  0  0  0  0  0
    6.0872   69.3723   68.5287 H   0  0  0  0  0  0  0  0  0  0  0  0
    1.7175   68.4767   63.5072 H   0  0  0  0  0  0  0  0  0  0  0  0
    2.8723   68.2827   61.3137 H   0  0  0  0  0  0  0  0  0  0  0  0
    5.3024   68.8189   61.1449 H   0  0  0  0  0  0  0  0  0  0  0  0
    6.5557   69.5206   63.1708 H   0  0  0  0  0  0  0  0  0  0  0  0
  3  2  2  0
  4  3  1  0
  4  1  1  0
  5  3  1  0
  6  5  2  0
  7  6  1  0
  8  7  2  0
  9  8  1  0
 10  9  2  0
 11 10  1  0
 12 11  2  0
 12  7  1  0
 13 12  1  0
 14 13  1  0
 14  5  1  0
 15 14  2  0
 16  9  1  0
 17 16  1  0
 18 17  1  0
 19 17  1  0
 20 17  1  0
 21  1  1  0
 22 21  1  0
 23 22  1  0
 24 23  1  0
 25 24  1  0
 26 25  1  0
 27 26  1  0
 28 27  1  0
 29 28  1  0
 30 29  1  0
 31 30  1  0
 32 27  2  0
 32 31  1  0
 33 32  1  0
 34 33  2  0
 35 34  1  0
 35 26  2  0
 36 35  1  0
 37 36  2  0
 38 37  1  0
 39 38  2  0
 39 34  1  0
  1 40  1  0
  1 41  1  0
  4 42  1  0
  6 43  1  0
  8 44  1  0
 10 45  1  0
 11 46  1  0
 21 47  1  0
 21 48  1  0
 22 49  1  0
 22 50  1  0
 23 51  1  0
 23 52  1  0
 24 53  1  0
 24 54  1  0
 25 55  1  0
 28 56  1  0
 28 57  1  0
 29 58  1  0
 29 59  1  0
 30 60  1  0
 30 61  1  0
 31 62  1  0
 31 63  1  0
 36 64  1  0
 37 65  1  0
 38 66  1  0
 39 67  1  0
M  END
>  <score>  (2) 
-12.508

$$$$
=
     RDKit          3D

 67 71  0  0  0  0  0  0  0  0999 V2000
   -1.1060   66.6790   68.0390 C   0  0  0  0  0  0  0  0  0  0  0  0
   -1.1070   68.3640   65.7660 O   0  0  0  0  0  0  0  0  0  0  0  0
   -0.0320   67.9880   66.2270 C   0  0  0  0  0  0  0  0  0  0  0  0
    0.0540   67.1750   67.3280 N   0  0  0  0  0  0  0  0  0  0  0  0
    1.2690   68.3920   65.6030 C   0  0  0  0  0  0  0  0  0  0  0  0
    2.2520   68.7510   66.4460 C   0  0  0  0  0  0  0  0  0  0  0  0
    3.5530   69.1590   65.9440 C   0  0  0  0  0  0  0  0  0  0  0  0
    4.5960   69.5390   66.7930 C   0  0  0  0  0  0  0  0  0  0  0  0
    5.8390   69.9270   66.2720 C   0  0  0  0  0  0  0  0  0  0  0  0
    6.0310   69.9330   64.8870 C   0  0  0  0  0  0  0  0  0  0  0  0
    4.9910   69.5560   64.0330 C   0  0  0  0  0  0  0  0  0  0  0  0
    3.7680   69.1750   64.5750 C   0  0  0  0  0  0  0  0  0  0  0  0
    2.7470   68.8020   63.6850 O   0  0  0  0  0  0  0  0  0  0  0  0
    1.4930   68.4070   64.1390 C   0  0  0  0  0  0  0  0  0  0  0  0
    0.6130   68.0870   63.3430 O   0  0  0  0  0  0  0  0  0  0  0  0
    6.7610   70.2710   67.2190 O   0  0  0  0  0  0  0  0  0  0  0  0
    6.3350   71.0900   68.2950 C   0  0  0  0  0  0  0  0  0  0  0  0
    5.7500   72.1980   67.7920 F   0  0  0  0  0  0  0  0  0  0  0  0
    7.3830   71.4750   69.0550 F   0  0  0  0  0  0  0  0  0  0  0  0
    5.4310   70.4490   69.0660 F   0  0  0  0  0  0  0  0  0  0  0  0
   -0.7540   66.1380   69.4250 C   0  0  0  0  0  0  0  0  0  0  0  0
    0.6460   66.5510   69.8910 C   0  0  0  0  0  0  0  0  0  0  0  0
    1.4910   65.3770   70.3930 C   0  0  0  0  0  0  0  0  0  0  0  0
    0.7290   64.4310   71.3230 C   0  0  0  0  0  0  0  0  0  0  0  0
    0.7550   63.0780   70.7470 N   0  0  0  0  0  0  0  0  0  0  0  0
    1.2730   62.1270   71.6720 C   0  0  0  0  0  0  0  0  0  0  0  0
    2.6590   61.9320   71.7330 C   0  0  0  0  0  0  0  0  0  0  0  0
    3.6520   62.6220   70.8340 C   0  0  0  0  0  0  0  0  0  0  0  0
    4.7390   61.6570   70.3500 C   0  0  0  0  0  0  0  0  0  0  0  0
    5.2630   60.6850   71.4160 C   0  0  0  0  0  0  0  0  0  0  0  0
    4.6510   60.8850   72.8010 C   0  0  0  0  0  0  0  0  0  0  0  0
    3.1590   61.0640   72.7010 C   0  0  0  0  0  0  0  0  0  0  0  0
    2.3850   60.3960   73.5820 N   0  0  0  0  0  0  0  0  0  0  0  0
    1.0580   60.5760   73.5240 C   0  0  0  0  0  0  0  0  0  0  0  0
    0.4330   61.4400   72.5950 C   0  0  0  0  0  0  0  0  0  0  0  0
   -0.9790   61.5710   72.6460 C   0  0  0  0  0  0  0  0  0  0  0  0
   -1.7440   60.8650   73.5750 C   0  0  0  0  0  0  0  0  0  0  0  0
   -1.1150   60.0160   74.4720 C   0  0  0  0  0  0  0  0  0  0  0  0
    0.2750   59.8840   74.4370 C   0  0  0  0  0  0  0  0  0  0  0  0
   -1.8279   67.5010   68.1537 H   0  0  0  0  0  0  0  0  0  0  0  0
   -1.5286   65.8495   67.4531 H   0  0  0  0  0  0  0  0  0  0  0  0
    0.9887   66.9041   67.6655 H   0  0  0  0  0  0  0  0  0  0  0  0
    2.0693   68.7358   67.5306 H   0  0  0  0  0  0  0  0  0  0  0  0
    4.4403   69.5337   67.8819 H   0  0  0  0  0  0  0  0  0  0  0  0
    7.0025   70.2351   64.4688 H   0  0  0  0  0  0  0  0  0  0  0  0
    5.1382   69.5605   62.9429 H   0  0  0  0  0  0  0  0  0  0  0  0
   -1.4906   66.5192   70.1476 H   0  0  0  0  0  0  0  0  0  0  0  0
   -0.7697   65.0398   69.3633 H   0  0  0  0  0  0  0  0  0  0  0  0
    1.1700   67.0215   69.0460 H   0  0  0  0  0  0  0  0  0  0  0  0
    0.5159   67.2423   70.7367 H   0  0  0  0  0  0  0  0  0  0  0  0
    1.8411   64.8026   69.5226 H   0  0  0  0  0  0  0  0  0  0  0  0
    2.3228   65.8019   70.9741 H   0  0  0  0  0  0  0  0  0  0  0  0
    1.2080   64.4206   72.3132 H   0  0  0  0  0  0  0  0  0  0  0  0
   -0.3114   64.7712   71.4317 H   0  0  0  0  0  0  0  0  0  0  0  0
    0.4384   62.8472   69.7944 H   0  0  0  0  0  0  0  0  0  0  0  0
    3.1208   63.0286   69.9608 H   0  0  0  0  0  0  0  0  0  0  0  0
    4.1359   63.4258   71.4083 H   0  0  0  0  0  0  0  0  0  0  0  0
    4.3249   61.0640   69.5212 H   0  0  0  0  0  0  0  0  0  0  0  0
    5.5954   62.2809   70.0544 H   0  0  0  0  0  0  0  0  0  0  0  0
    5.0418   59.6592   71.0860 H   0  0  0  0  0  0  0  0  0  0  0  0
    6.3414   60.8774   71.5163 H   0  0  0  0  0  0  0  0  0  0  0  0
    4.8684   60.0041   73.4228 H   0  0  0  0  0  0  0  0  0  0  0  0
    5.0867   61.7878   73.2540 H   0  0  0  0  0  0  0  0  0  0  0  0
   -1.4821   62.2447   71.9368 H   0  0  0  0  0  0  0  0  0  0  0  0
   -2.8376   60.9813   73.5954 H   0  0  0  0  0  0  0  0  0  0  0  0
   -1.7066   59.4499   75.2066 H   0  0  0  0  0  0  0  0  0  0  0  0
    0.7644   59.2103   75.1558 H   0  0  0  0  0  0  0  0  0  0  0  0
  3  2  2  0
  4  3  1  0
  4  1  1  0
  5  3  1  0
  6  5  2  0
  7  6  1  0
  8  7  2  0
  9  8  1  0
 10  9  2  0
 11 10  1  0
 12 11  2  0
 12  7  1  0
 13 12  1  0
 14 13  1  0
 14  5  1  0
 15 14  2  0
 16  9  1  0
 17 16  1  0
 18 17  1  0
 19 17  1  0
 20 17  1  0
 21  1  1  0
 22 21  1  0
 23 22  1  0
 24 23  1  0
 25 24  1  0
 26 25  1  0
 27 26  1  0
 28 27  1  0
 29 28  1  0
 30 29  1  0
 31 30  1  0
 32 27  2  0
 32 31  1  0
 33 32  1  0
 34 33  2  0
 35 34  1  0
 35 26  2  0
 36 35  1  0
 37 36  2  0
 38 37  1  0
 39 38  2  0
 39 34  1  0
  1 40  1  0
  1 41  1  0
  4 42  1  0
  6 43  1  0
  8 44  1  0
 10 45  1  0
 11 46  1  0
 21 47  1  0
 21 48  1  0
 22 49  1  0
 22 50  1  0
 23 51  1  0
 23 52  1  0
 24 53  1  0
 24 54  1  0
 25 55  1  0
 28 56  1  0
 28 57  1  0
 29 58  1  0
 29 59  1  0
 30 60  1  0
 30 61  1  0
 31 62  1  0
 31 63  1  0
 36 64  1  0
 37 65  1  0
 38 66  1  0
 39 67  1  0
M  END
>  <score>  (3) 
-12.012

$$$$
=
     RDKit          3D

 67 71  0  0  0  0  0  0  0  0999 V2000
   -0.3860   66.0780   69.6550 C   0  0  0  0  0  0  0  0  0  0  0  0
   -0.6830   67.9400   67.5450 O   0  0  0  0  0  0  0  0  0  0  0  0
    0.4480   67.6150   67.8970 C   0  0  0  0  0  0  0  0  0  0  0  0
    0.6770   66.7240   68.9140 N   0  0  0  0  0  0  0  0  0  0  0  0
    1.6650   68.1740   67.2250 C   0  0  0  0  0  0  0  0  0  0  0  0
    2.4620   68.9520   67.9770 C   0  0  0  0  0  0  0  0  0  0  0  0
    3.6670   69.5430   67.4220 C   0  0  0  0  0  0  0  0  0  0  0  0
    4.5170   70.3570   68.1760 C   0  0  0  0  0  0  0  0  0  0  0  0
    5.6730   70.9100   67.6050 C   0  0  0  0  0  0  0  0  0  0  0  0
    5.9730   70.6420   66.2660 C   0  0  0  0  0  0  0  0  0  0  0  0
    5.1260   69.8300   65.5060 C   0  0  0  0  0  0  0  0  0  0  0  0
    3.9860   69.2930   66.0960 C   0  0  0  0  0  0  0  0  0  0  0  0
    3.1600   68.4810   65.3000 O   0  0  0  0  0  0  0  0  0  0  0  0
    2.0010   67.9040   65.8080 C   0  0  0  0  0  0  0  0  0  0  0  0
    1.2910   67.1990   65.0930 O   0  0  0  0  0  0  0  0  0  0  0  0
    6.4050   71.6820   68.4600 O   0  0  0  0  0  0  0  0  0  0  0  0
    7.3520   71.0360   69.2950 C   0  0  0  0  0  0  0  0  0  0  0  0
    8.3280   71.9150   69.6070 F   0  0  0  0  0  0  0  0  0  0  0  0
    7.9170   69.9850   68.6630 F   0  0  0  0  0  0  0  0  0  0  0  0
    6.7800   70.6160   70.4440 F   0  0  0  0  0  0  0  0  0  0  0  0
    0.1430   65.0730   70.6780 C   0  0  0  0  0  0  0  0  0  0  0  0
   -0.0020   65.5580   72.1240 C   0  0  0  0  0  0  0  0  0  0  0  0
    0.0210   64.4220   73.1520 C   0  0  0  0  0  0  0  0  0  0  0  0
    0.2450   63.0420   72.5290 C   0  0  0  0  0  0  0  0  0  0  0  0
    1.4160   62.4200   73.1650 N   0  0  0  0  0  0  0  0  0  0  0  0
    1.9880   61.4140   72.3350 C   0  0  0  0  0  0  0  0  0  0  0  0
    2.8470   61.8030   71.2980 C   0  0  0  0  0  0  0  0  0  0  0  0
    3.1630   63.2350   70.9530 C   0  0  0  0  0  0  0  0  0  0  0  0
    3.1700   63.4610   69.4380 C   0  0  0  0  0  0  0  0  0  0  0  0
    3.8320   62.3430   68.6200 C   0  0  0  0  0  0  0  0  0  0  0  0
    4.4260   61.2170   69.4630 C   0  0  0  0  0  0  0  0  0  0  0  0
    3.4680   60.8060   70.5500 C   0  0  0  0  0  0  0  0  0  0  0  0
    3.2880   59.4850   70.7630 N   0  0  0  0  0  0  0  0  0  0  0  0
    2.4650   59.1090   71.7520 C   0  0  0  0  0  0  0  0  0  0  0  0
    1.7870   60.0260   72.5880 C   0  0  0  0  0  0  0  0  0  0  0  0
    0.9610   59.5100   73.6190 C   0  0  0  0  0  0  0  0  0  0  0  0
    0.8040   58.1370   73.8100 C   0  0  0  0  0  0  0  0  0  0  0  0
    1.4700   57.2520   72.9760 C   0  0  0  0  0  0  0  0  0  0  0  0
    2.2920   57.7480   71.9610 C   0  0  0  0  0  0  0  0  0  0  0  0
   -0.9662   66.8483   70.1842 H   0  0  0  0  0  0  0  0  0  0  0  0
   -1.0091   65.5269   68.9353 H   0  0  0  0  0  0  0  0  0  0  0  0
    1.6520   66.5038   69.1626 H   0  0  0  0  0  0  0  0  0  0  0  0
    2.1980   69.1439   69.0275 H   0  0  0  0  0  0  0  0  0  0  0  0
    4.2769   70.5664   69.2289 H   0  0  0  0  0  0  0  0  0  0  0  0
    6.8773   71.0709   65.8096 H   0  0  0  0  0  0  0  0  0  0  0  0
    5.3585   69.6177   64.4520 H   0  0  0  0  0  0  0  0  0  0  0  0
   -0.4157   64.1320   70.5662 H   0  0  0  0  0  0  0  0  0  0  0  0
    1.2171   64.9387   70.4822 H   0  0  0  0  0  0  0  0  0  0  0  0
    0.8272   66.2459   72.3459 H   0  0  0  0  0  0  0  0  0  0  0  0
   -0.9828   66.0494   72.2049 H   0  0  0  0  0  0  0  0  0  0  0  0
    0.8325   64.6168   73.8686 H   0  0  0  0  0  0  0  0  0  0  0  0
   -0.9664   64.4028   73.6365 H   0  0  0  0  0  0  0  0  0  0  0  0
   -0.6426   62.4135   72.6935 H   0  0  0  0  0  0  0  0  0  0  0  0
    0.4167   63.1434   71.4472 H   0  0  0  0  0  0  0  0  0  0  0  0
    1.7771   62.6794   74.0941 H   0  0  0  0  0  0  0  0  0  0  0  0
    2.4035   63.8879   71.4079 H   0  0  0  0  0  0  0  0  0  0  0  0
    4.1653   63.4695   71.3407 H   0  0  0  0  0  0  0  0  0  0  0  0
    2.1270   63.5581   69.1023 H   0  0  0  0  0  0  0  0  0  0  0  0
    3.7698   64.3666   69.2642 H   0  0  0  0  0  0  0  0  0  0  0  0
    3.0736   61.9098   67.9512 H   0  0  0  0  0  0  0  0  0  0  0  0
    4.6686   62.8040   68.0746 H   0  0  0  0  0  0  0  0  0  0  0  0
    4.6318   60.3513   68.8163 H   0  0  0  0  0  0  0  0  0  0  0  0
    5.3566   61.5751   69.9275 H   0  0  0  0  0  0  0  0  0  0  0  0
    0.4318   60.2087   74.2836 H   0  0  0  0  0  0  0  0  0  0  0  0
    0.1571   57.7596   74.6157 H   0  0  0  0  0  0  0  0  0  0  0  0
    1.3520   56.1669   73.1125 H   0  0  0  0  0  0  0  0  0  0  0  0
    2.8186   57.0374   71.3070 H   0  0  0  0  0  0  0  0  0  0  0  0
  3  2  2  0
  4  3  1  0
  4  1  1  0
  5  3  1  0
  6  5  2  0
  7  6  1  0
  8  7  2  0
  9  8  1  0
 10  9  2  0
 11 10  1  0
 12 11  2  0
 12  7  1  0
 13 12  1  0
 14 13  1  0
 14  5  1  0
 15 14  2  0
 16  9  1  0
 17 16  1  0
 18 17  1  0
 19 17  1  0
 20 17  1  0
 21  1  1  0
 22 21  1  0
 23 22  1  0
 24 23  1  0
 25 24  1  0
 26 25  1  0
 27 26  1  0
 28 27  1  0
 29 28  1  0
 30 29  1  0
 31 30  1  0
 32 27  2  0
 32 31  1  0
 33 32  1  0
 34 33  2  0
 35 34  1  0
 35 26  2  0
 36 35  1  0
 37 36  2  0
 38 37  1  0
 39 38  2  0
 39 34  1  0
  1 40  1  0
  1 41  1  0
  4 42  1  0
  6 43  1  0
  8 44  1  0
 10 45  1  0
 11 46  1  0
 21 47  1  0
 21 48  1  0
 22 49  1  0
 22 50  1  0
 23 51  1  0
 23 52  1  0
 24 53  1  0
 24 54  1  0
 25 55  1  0
 28 56  1  0
 28 57  1  0
 29 58  1  0
 29 59  1  0
 30 60  1  0
 30 61  1  0
 31 62  1  0
 31 63  1  0
 36 64  1  0
 37 65  1  0
 38 66  1  0
 39 67  1  0
M  END
>  <score>  (4) 
-11.991

$$$$
=
     RDKit          3D

 67 71  0  0  0  0  0  0  0  0999 V2000
   -0.8380   66.7470   68.1810 C   0  0  0  0  0  0  0  0  0  0  0  0
   -0.4970   68.6440   66.1100 O   0  0  0  0  0  0  0  0  0  0  0  0
    0.4950   68.2200   66.6970 C   0  0  0  0  0  0  0  0  0  0  0  0
    0.4150   67.3050   67.7150 N   0  0  0  0  0  0  0  0  0  0  0  0
    1.8730   68.6770   66.3290 C   0  0  0  0  0  0  0  0  0  0  0  0
    2.5500   69.3580   67.2690 C   0  0  0  0  0  0  0  0  0  0  0  0
    3.8950   69.8460   67.0140 C   0  0  0  0  0  0  0  0  0  0  0  0
    4.6260   70.5570   67.9700 C   0  0  0  0  0  0  0  0  0  0  0  0
    5.9230   71.0120   67.6870 C   0  0  0  0  0  0  0  0  0  0  0  0
    6.4850   70.7490   66.4350 C   0  0  0  0  0  0  0  0  0  0  0  0
    5.7580   70.0390   65.4750 C   0  0  0  0  0  0  0  0  0  0  0  0
    4.4750   69.5980   65.7790 C   0  0  0  0  0  0  0  0  0  0  0  0
    3.7760   68.8870   64.7890 O   0  0  0  0  0  0  0  0  0  0  0  0
    2.4870   68.4100   65.0080 C   0  0  0  0  0  0  0  0  0  0  0  0
    1.8930   67.7930   64.1260 O   0  0  0  0  0  0  0  0  0  0  0  0
    6.5140   71.6910   68.7140 O   0  0  0  0  0  0  0  0  0  0  0  0
    7.4240   70.9850   69.5410 C   0  0  0  0  0  0  0  0  0  0  0  0
    7.8930   69.9180   68.8590 F   0  0  0  0  0  0  0  0  0  0  0  0
    6.8150   70.5360   70.6590 F   0  0  0  0  0  0  0  0  0  0  0  0
    8.4750   71.7620   69.8810 F   0  0  0  0  0  0  0  0  0  0  0  0
   -0.7080   66.0930   69.5570 C   0  0  0  0  0  0  0  0  0  0  0  0
    0.6810   66.2740   70.1780 C   0  0  0  0  0  0  0  0  0  0  0  0
    1.5280   64.9970   70.1560 C   0  0  0  0  0  0  0  0  0  0  0  0
    0.7720   63.7570   70.6370 C   0  0  0  0  0  0  0  0  0  0  0  0
    1.1090   63.5150   72.0470 N   0  0  0  0  0  0  0  0  0  0  0  0
    1.5970   62.1920   72.2480 C   0  0  0  0  0  0  0  0  0  0  0  0
    0.7070   61.2050   72.6950 C   0  0  0  0  0  0  0  0  0  0  0  0
   -0.7360   61.4620   73.0430 C   0  0  0  0  0  0  0  0  0  0  0  0
   -1.1470   60.7230   74.3210 C   0  0  0  0  0  0  0  0  0  0  0  0
   -0.6030   59.2930   74.4450 C   0  0  0  0  0  0  0  0  0  0  0  0
    0.2120   58.8260   73.2410 C   0  0  0  0  0  0  0  0  0  0  0  0
    1.1750   59.8980   72.8040 C   0  0  0  0  0  0  0  0  0  0  0  0
    2.4380   59.5260   72.5080 N   0  0  0  0  0  0  0  0  0  0  0  0
    3.2940   60.4670   72.0830 C   0  0  0  0  0  0  0  0  0  0  0  0
    2.9340   61.8250   71.9200 C   0  0  0  0  0  0  0  0  0  0  0  0
    3.9190   62.7260   71.4400 C   0  0  0  0  0  0  0  0  0  0  0  0
    5.2130   62.3010   71.1410 C   0  0  0  0  0  0  0  0  0  0  0  0
    5.5500   60.9680   71.3140 C   0  0  0  0  0  0  0  0  0  0  0  0
    4.5880   60.0690   71.7800 C   0  0  0  0  0  0  0  0  0  0  0  0
   -1.5831   67.5539   68.2422 H   0  0  0  0  0  0  0  0  0  0  0  0
   -1.1451   65.9686   67.4670 H   0  0  0  0  0  0  0  0  0  0  0  0
    1.2872   66.9999   68.1700 H   0  0  0  0  0  0  0  0  0  0  0  0
    2.0797   69.5487   68.2449 H   0  0  0  0  0  0  0  0  0  0  0  0
    4.1800   70.7620   68.9544 H   0  0  0  0  0  0  0  0  0  0  0  0
    7.5012   71.1013   66.2044 H   0  0  0  0  0  0  0  0  0  0  0  0
    6.1970   69.8311   64.4881 H   0  0  0  0  0  0  0  0  0  0  0  0
   -1.4538   66.5414   70.2299 H   0  0  0  0  0  0  0  0  0  0  0  0
   -0.8706   65.0132   69.4244 H   0  0  0  0  0  0  0  0  0  0  0  0
    1.2144   67.0560   69.6177 H   0  0  0  0  0  0  0  0  0  0  0  0
    0.5322   66.5471   71.2331 H   0  0  0  0  0  0  0  0  0  0  0  0
    1.8659   64.8207   69.1241 H   0  0  0  0  0  0  0  0  0  0  0  0
    2.3684   65.1533   70.8483 H   0  0  0  0  0  0  0  0  0  0  0  0
   -0.3110   63.9229   70.5388 H   0  0  0  0  0  0  0  0  0  0  0  0
    1.0575   62.8857   70.0293 H   0  0  0  0  0  0  0  0  0  0  0  0
    1.0053   64.2145   72.7959 H   0  0  0  0  0  0  0  0  0  0  0  0
   -0.8804   62.5421   73.1928 H   0  0  0  0  0  0  0  0  0  0  0  0
   -1.3608   61.0938   72.2159 H   0  0  0  0  0  0  0  0  0  0  0  0
   -0.7837   61.3025   75.1825 H   0  0  0  0  0  0  0  0  0  0  0  0
   -2.2428   60.6339   74.2865 H   0  0  0  0  0  0  0  0  0  0  0  0
    0.0399   59.2447   75.3363 H   0  0  0  0  0  0  0  0  0  0  0  0
   -1.4763   58.6276   74.5124 H   0  0  0  0  0  0  0  0  0  0  0  0
    0.7768   57.9228   73.5153 H   0  0  0  0  0  0  0  0  0  0  0  0
   -0.4757   58.6076   72.4107 H   0  0  0  0  0  0  0  0  0  0  0  0
    3.6558   63.7849   71.3004 H   0  0  0  0  0  0  0  0  0  0  0  0
    5.9604   63.0182   70.7707 H   0  0  0  0  0  0  0  0  0  0  0  0
    6.5683   60.6202   71.0858 H   0  0  0  0  0  0  0  0  0  0  0  0
    4.8650   59.0125   71.9108 H   0  0  0  0  0  0  0  0  0  0  0  0
  3  2  2  0
  4  3  1  0
  4  1  1  0
  5  3  1  0
  6  5  2  0
  7  6  1  0
  8  7  2  0
  9  8  1  0
 10  9  2  0
 11 10  1  0
 12 11  2  0
 12  7  1  0
 13 12  1  0
 14 13  1  0
 14  5  1  0
 15 14  2  0
 16  9  1  0
 17 16  1  0
 18 17  1  0
 19 17  1  0
 20 17  1  0
 21  1  1  0
 22 21  1  0
 23 22  1  0
 24 23  1  0
 25 24  1  0
 26 25  1  0
 27 26  1  0
 28 27  1  0
 29 28  1  0
 30 29  1  0
 31 30  1  0
 32 27  2  0
 32 31  1  0
 33 32  1  0
 34 33  2  0
 35 34  1  0
 35 26  2  0
 36 35  1  0
 37 36  2  0
 38 37  1  0
 39 38  2  0
 39 34  1  0
  1 40  1  0
  1 41  1  0
  4 42  1  0
  6 43  1  0
  8 44  1  0
 10 45  1  0
 11 46  1  0
 21 47  1  0
 21 48  1  0
 22 49  1  0
 22 50  1  0
 23 51  1  0
 23 52  1  0
 24 53  1  0
 24 54  1  0
 25 55  1  0
 28 56  1  0
 28 57  1  0
 29 58  1  0
 29 59  1  0
 30 60  1  0
 30 61  1  0
 31 62  1  0
 31 63  1  0
 36 64  1  0
 37 65  1  0
 38 66  1  0
 39 67  1  0
M  END
>  <score>  (5) 
-11.983

$$$$
=
     RDKit          3D

 67 71  0  0  0  0  0  0  0  0999 V2000
    4.2510   63.4320   66.7340 C   0  0  0  0  0  0  0  0  0  0  0  0
    4.8570   63.3740   69.4970 O   0  0  0  0  0  0  0  0  0  0  0  0
    3.7470   63.0030   69.1230 C   0  0  0  0  0  0  0  0  0  0  0  0
    3.3730   63.0050   67.8040 N   0  0  0  0  0  0  0  0  0  0  0  0
    2.7210   62.5100   70.0970 C   0  0  0  0  0  0  0  0  0  0  0  0
    2.9980   61.3560   70.7280 C   0  0  0  0  0  0  0  0  0  0  0  0
    2.0690   60.7910   71.6920 C   0  0  0  0  0  0  0  0  0  0  0  0
    2.3270   59.5940   72.3640 C   0  0  0  0  0  0  0  0  0  0  0  0
    1.4060   59.0790   73.2900 C   0  0  0  0  0  0  0  0  0  0  0  0
    0.2200   59.7760   73.5370 C   0  0  0  0  0  0  0  0  0  0  0  0
   -0.0440   60.9730   72.8670 C   0  0  0  0  0  0  0  0  0  0  0  0
    0.8850   61.4630   71.9550 C   0  0  0  0  0  0  0  0  0  0  0  0
    0.5850   62.6700   71.3010 O   0  0  0  0  0  0  0  0  0  0  0  0
    1.4570   63.2320   70.3730 C   0  0  0  0  0  0  0  0  0  0  0  0
    1.1730   64.2870   69.8110 O   0  0  0  0  0  0  0  0  0  0  0  0
    1.7910   57.9040   73.8680 O   0  0  0  0  0  0  0  0  0  0  0  0
    1.5760   56.7040   73.1430 C   0  0  0  0  0  0  0  0  0  0  0  0
    0.2490   56.5470   72.9470 F   0  0  0  0  0  0  0  0  0  0  0  0
    2.0300   55.6340   73.8310 F   0  0  0  0  0  0  0  0  0  0  0  0
    2.1780   56.7520   71.9350 F   0  0  0  0  0  0  0  0  0  0  0  0
    3.4810   63.9930   65.5370 C   0  0  0  0  0  0  0  0  0  0  0  0
    4.3570   64.8320   64.6010 C   0  0  0  0  0  0  0  0  0  0  0  0
    3.6530   66.0830   64.0670 C   0  0  0  0  0  0  0  0  0  0  0  0
    4.5100   67.3470   64.1520 C   0  0  0  0  0  0  0  0  0  0  0  0
    3.6270   68.5220   64.1140 N   0  0  0  0  0  0  0  0  0  0  0  0
    3.2700   68.9500   65.4240 C   0  0  0  0  0  0  0  0  0  0  0  0
    1.9720   68.6920   65.8880 C   0  0  0  0  0  0  0  0  0  0  0  0
    0.8930   68.0390   65.0640 C   0  0  0  0  0  0  0  0  0  0  0  0
   -0.4600   68.7320   65.2570 C   0  0  0  0  0  0  0  0  0  0  0  0
   -0.7800   69.1340   66.7030 C   0  0  0  0  0  0  0  0  0  0  0  0
    0.2840   68.7220   67.7180 C   0  0  0  0  0  0  0  0  0  0  0  0
    1.6620   69.0370   67.2010 C   0  0  0  0  0  0  0  0  0  0  0  0
    2.5380   69.6110   68.0530 N   0  0  0  0  0  0  0  0  0  0  0  0
    3.7790   69.8630   67.6120 C   0  0  0  0  0  0  0  0  0  0  0  0
    4.2170   69.5470   66.3050 C   0  0  0  0  0  0  0  0  0  0  0  0
    5.5620   69.8380   65.9600 C   0  0  0  0  0  0  0  0  0  0  0  0
    6.4380   70.4280   66.8710 C   0  0  0  0  0  0  0  0  0  0  0  0
    5.9890   70.7390   68.1450 C   0  0  0  0  0  0  0  0  0  0  0  0
    4.6690   70.4510   68.5000 C   0  0  0  0  0  0  0  0  0  0  0  0
    4.9233   64.2128   67.1190 H   0  0  0  0  0  0  0  0  0  0  0  0
    4.8124   62.5512   66.3889 H   0  0  0  0  0  0  0  0  0  0  0  0
    2.4232   62.6880   67.5626 H   0  0  0  0  0  0  0  0  0  0  0  0
    3.9408   60.8321   70.5117 H   0  0  0  0  0  0  0  0  0  0  0  0
    3.2617   59.0491   72.1656 H   0  0  0  0  0  0  0  0  0  0  0  0
   -0.5077   59.3808   74.2611 H   0  0  0  0  0  0  0  0  0  0  0  0
   -0.9773   61.5227   73.0587 H   0  0  0  0  0  0  0  0  0  0  0  0
    3.0618   63.1523   64.9647 H   0  0  0  0  0  0  0  0  0  0  0  0
    2.6951   64.6536   65.9319 H   0  0  0  0  0  0  0  0  0  0  0  0
    5.2552   65.1462   65.1527 H   0  0  0  0  0  0  0  0  0  0  0  0
    4.6011   64.2016   63.7332 H   0  0  0  0  0  0  0  0  0  0  0  0
    3.3892   65.9112   63.0130 H   0  0  0  0  0  0  0  0  0  0  0  0
    2.7665   66.2496   64.6965 H   0  0  0  0  0  0  0  0  0  0  0  0
    5.0810   67.3439   65.0922 H   0  0  0  0  0  0  0  0  0  0  0  0
    5.2122   67.3799   63.3059 H   0  0  0  0  0  0  0  0  0  0  0  0
    3.3068   68.9784   63.2479 H   0  0  0  0  0  0  0  0  0  0  0  0
    1.1733   68.0924   64.0017 H   0  0  0  0  0  0  0  0  0  0  0  0
    0.7944   66.9936   65.3917 H   0  0  0  0  0  0  0  0  0  0  0  0
   -0.4688   69.6422   64.6394 H   0  0  0  0  0  0  0  0  0  0  0  0
   -1.2263   67.9993   64.9639 H   0  0  0  0  0  0  0  0  0  0  0  0
   -0.8876   70.2281   66.7410 H   0  0  0  0  0  0  0  0  0  0  0  0
   -1.7034   68.6047   66.9810 H   0  0  0  0  0  0  0  0  0  0  0  0
    0.1173   69.2684   68.6580 H   0  0  0  0  0  0  0  0  0  0  0  0
    0.2093   67.6379   67.8886 H   0  0  0  0  0  0  0  0  0  0  0  0
    5.9225   69.5925   64.9502 H   0  0  0  0  0  0  0  0  0  0  0  0
    7.4767   70.6447   66.5808 H   0  0  0  0  0  0  0  0  0  0  0  0
    6.6677   71.2095   68.8717 H   0  0  0  0  0  0  0  0  0  0  0  0
    4.3242   70.6979   69.5150 H   0  0  0  0  0  0  0  0  0  0  0  0
  3  2  2  0
  4  3  1  0
  4  1  1  0
  5  3  1  0
  6  5  2  0
  7  6  1  0
  8  7  2  0
  9  8  1  0
 10  9  2  0
 11 10  1  0
 12 11  2  0
 12  7  1  0
 13 12  1  0
 14 13  1  0
 14  5  1  0
 15 14  2  0
 16  9  1  0
 17 16  1  0
 18 17  1  0
 19 17  1  0
 20 17  1  0
 21  1  1  0
 22 21  1  0
 23 22  1  0
 24 23  1  0
 25 24  1  0
 26 25  1  0
 27 26  1  0
 28 27  1  0
 29 28  1  0
 30 29  1  0
 31 30  1  0
 32 27  2  0
 32 31  1  0
 33 32  1  0
 34 33  2  0
 35 34  1  0
 35 26  2  0
 36 35  1  0
 37 36  2  0
 38 37  1  0
 39 38  2  0
 39 34  1  0
  1 40  1  0
  1 41  1  0
  4 42  1  0
  6 43  1  0
  8 44  1  0
 10 45  1  0
 11 46  1  0
 21 47  1  0
 21 48  1  0
 22 49  1  0
 22 50  1  0
 23 51  1  0
 23 52  1  0
 24 53  1  0
 24 54  1  0
 25 55  1  0
 28 56  1  0
 28 57  1  0
 29 58  1  0
 29 59  1  0
 30 60  1  0
 30 61  1  0
 31 62  1  0
 31 63  1  0
 36 64  1  0
 37 65  1  0
 38 66  1  0
 39 67  1  0
M  END
>  <score>  (6) 
-11.625

$$$$
=
     RDKit          3D

 67 71  0  0  0  0  0  0  0  0999 V2000
    0.0160   65.8590   70.4100 C   0  0  0  0  0  0  0  0  0  0  0  0
    1.7190   67.8510   69.3440 O   0  0  0  0  0  0  0  0  0  0  0  0
    0.8840   67.3280   68.6110 C   0  0  0  0  0  0  0  0  0  0  0  0
    0.0250   66.3520   69.0480 N   0  0  0  0  0  0  0  0  0  0  0  0
    0.7430   67.7330   67.1750 C   0  0  0  0  0  0  0  0  0  0  0  0
    1.8540   67.6620   66.4210 C   0  0  0  0  0  0  0  0  0  0  0  0
    1.8260   68.0320   65.0160 C   0  0  0  0  0  0  0  0  0  0  0  0
    2.9610   67.9700   64.2050 C   0  0  0  0  0  0  0  0  0  0  0  0
    2.8960   68.3360   62.8510 C   0  0  0  0  0  0  0  0  0  0  0  0
    1.6790   68.7660   62.3150 C   0  0  0  0  0  0  0  0  0  0  0  0
    0.5400   68.8320   63.1220 C   0  0  0  0  0  0  0  0  0  0  0  0
    0.6310   68.4630   64.4600 C   0  0  0  0  0  0  0  0  0  0  0  0
   -0.5350   68.5420   65.2400 O   0  0  0  0  0  0  0  0  0  0  0  0
   -0.5360   68.1940   66.5870 C   0  0  0  0  0  0  0  0  0  0  0  0
   -1.5670   68.2720   67.2510 O   0  0  0  0  0  0  0  0  0  0  0  0
    4.0820   68.2240   62.1830 O   0  0  0  0  0  0  0  0  0  0  0  0
    5.1700   69.0200   62.6230 C   0  0  0  0  0  0  0  0  0  0  0  0
    4.7410   69.8360   63.6110 F   0  0  0  0  0  0  0  0  0  0  0  0
    5.6450   69.7890   61.6200 F   0  0  0  0  0  0  0  0  0  0  0  0
    6.1660   68.2530   63.1140 F   0  0  0  0  0  0  0  0  0  0  0  0
    0.7170   64.5060   70.5450 C   0  0  0  0  0  0  0  0  0  0  0  0
    0.1470   63.6470   71.6780 C   0  0  0  0  0  0  0  0  0  0  0  0
    0.8100   63.9100   73.0330 C   0  0  0  0  0  0  0  0  0  0  0  0
    1.0280   62.6420   73.8600 C   0  0  0  0  0  0  0  0  0  0  0  0
    2.4400   62.2440   73.7530 N   0  0  0  0  0  0  0  0  0  0  0  0
    2.6250   61.2310   72.7690 C   0  0  0  0  0  0  0  0  0  0  0  0
    3.3330   61.5470   71.6020 C   0  0  0  0  0  0  0  0  0  0  0  0
    3.8680   62.9180   71.2800 C   0  0  0  0  0  0  0  0  0  0  0  0
    3.6340   63.2830   69.8100 C   0  0  0  0  0  0  0  0  0  0  0  0
    3.8840   62.1430   68.8130 C   0  0  0  0  0  0  0  0  0  0  0  0
    4.3820   60.8490   69.4530 C   0  0  0  0  0  0  0  0  0  0  0  0
    3.5830   60.5260   70.6880 C   0  0  0  0  0  0  0  0  0  0  0  0
    3.1770   59.2500   70.8590 N   0  0  0  0  0  0  0  0  0  0  0  0
    2.4960   58.9450   71.9730 C   0  0  0  0  0  0  0  0  0  0  0  0
    2.1930   59.8900   72.9790 C   0  0  0  0  0  0  0  0  0  0  0  0
    1.4880   59.4450   74.1280 C   0  0  0  0  0  0  0  0  0  0  0  0
    1.0900   58.1150   74.2690 C   0  0  0  0  0  0  0  0  0  0  0  0
    1.3890   57.2040   73.2680 C   0  0  0  0  0  0  0  0  0  0  0  0
    2.0880   57.6280   72.1360 C   0  0  0  0  0  0  0  0  0  0  0  0
    0.5296   66.5887   71.0532 H   0  0  0  0  0  0  0  0  0  0  0  0
   -1.0334   65.7246   70.7111 H   0  0  0  0  0  0  0  0  0  0  0  0
   -0.6449   65.9509   68.3763 H   0  0  0  0  0  0  0  0  0  0  0  0
    2.7963   67.3194   66.8735 H   0  0  0  0  0  0  0  0  0  0  0  0
    3.9165   67.6307   64.6315 H   0  0  0  0  0  0  0  0  0  0  0  0
    1.6175   69.0533   61.2550 H   0  0  0  0  0  0  0  0  0  0  0  0
   -0.4186   69.1723   62.7034 H   0  0  0  0  0  0  0  0  0  0  0  0
    0.6047   63.9570   69.5984 H   0  0  0  0  0  0  0  0  0  0  0  0
    1.7727   64.7046   70.7818 H   0  0  0  0  0  0  0  0  0  0  0  0
   -0.9285   63.8590   71.7691 H   0  0  0  0  0  0  0  0  0  0  0  0
    0.3431   62.5961   71.4190 H   0  0  0  0  0  0  0  0  0  0  0  0
    1.7871   64.3834   72.8568 H   0  0  0  0  0  0  0  0  0  0  0  0
    0.1307   64.5581   73.6061 H   0  0  0  0  0  0  0  0  0  0  0  0
    0.7783   62.8397   74.9129 H   0  0  0  0  0  0  0  0  0  0  0  0
    0.3823   61.8347   73.4841 H   0  0  0  0  0  0  0  0  0  0  0  0
    3.2001   62.6475   74.3190 H   0  0  0  0  0  0  0  0  0  0  0  0
    3.3609   63.6579   71.9168 H   0  0  0  0  0  0  0  0  0  0  0  0
    4.9521   62.9172   71.4663 H   0  0  0  0  0  0  0  0  0  0  0  0
    2.5891   63.6091   69.7011 H   0  0  0  0  0  0  0  0  0  0  0  0
    4.3634   64.0700   69.5678 H   0  0  0  0  0  0  0  0  0  0  0  0
    2.9400   61.9284   68.2907 H   0  0  0  0  0  0  0  0  0  0  0  0
    4.6786   62.4858   68.1340 H   0  0  0  0  0  0  0  0  0  0  0  0
    4.2794   60.0258   68.7307 H   0  0  0  0  0  0  0  0  0  0  0  0
    5.4369   60.9773   69.7370 H   0  0  0  0  0  0  0  0  0  0  0  0
    1.2501   60.1648   74.9251 H   0  0  0  0  0  0  0  0  0  0  0  0
    0.5434   57.7921   75.1673 H   0  0  0  0  0  0  0  0  0  0  0  0
    1.0775   56.1535   73.3648 H   0  0  0  0  0  0  0  0  0  0  0  0
    2.3226   56.8960   71.3492 H   0  0  0  0  0  0  0  0  0  0  0  0
  3  2  2  0
  4  3  1  0
  4  1  1  0
  5  3  1  0
  6  5  2  0
  7  6  1  0
  8  7  2  0
  9  8  1  0
 10  9  2  0
 11 10  1  0
 12 11  2  0
 12  7  1  0
 13 12  1  0
 14 13  1  0
 14  5  1  0
 15 14  2  0
 16  9  1  0
 17 16  1  0
 18 17  1  0
 19 17  1  0
 20 17  1  0
 21  1  1  0
 22 21  1  0
 23 22  1  0
 24 23  1  0
 25 24  1  0
 26 25  1  0
 27 26  1  0
 28 27  1  0
 29 28  1  0
 30 29  1  0
 31 30  1  0
 32 27  2  0
 32 31  1  0
 33 32  1  0
 34 33  2  0
 35 34  1  0
 35 26  2  0
 36 35  1  0
 37 36  2  0
 38 37  1  0
 39 38  2  0
 39 34  1  0
  1 40  1  0
  1 41  1  0
  4 42  1  0
  6 43  1  0
  8 44  1  0
 10 45  1  0
 11 46  1  0
 21 47  1  0
 21 48  1  0
 22 49  1  0
 22 50  1  0
 23 51  1  0
 23 52  1  0
 24 53  1  0
 24 54  1  0
 25 55  1  0
 28 56  1  0
 28 57  1  0
 29 58  1  0
 29 59  1  0
 30 60  1  0
 30 61  1  0
 31 62  1  0
 31 63  1  0
 36 64  1  0
 37 65  1  0
 38 66  1  0
 39 67  1  0
M  END
>  <score>  (7) 
-11.394

$$$$
=
     RDKit          3D

 67 71  0  0  0  0  0  0  0  0999 V2000
   -0.9780   67.1470   68.8090 C   0  0  0  0  0  0  0  0  0  0  0  0
    1.5910   66.7200   69.9160 O   0  0  0  0  0  0  0  0  0  0  0  0
    0.6780   65.9550   70.2180 C   0  0  0  0  0  0  0  0  0  0  0  0
   -0.5960   66.0970   69.7290 N   0  0  0  0  0  0  0  0  0  0  0  0
    0.9030   64.7990   71.1450 C   0  0  0  0  0  0  0  0  0  0  0  0
    1.7240   63.8300   70.7060 C   0  0  0  0  0  0  0  0  0  0  0  0
    2.0090   62.6660   71.5280 C   0  0  0  0  0  0  0  0  0  0  0  0
    2.8570   61.6410   71.1020 C   0  0  0  0  0  0  0  0  0  0  0  0
    3.1100   60.5320   71.9230 C   0  0  0  0  0  0  0  0  0  0  0  0
    2.5030   60.4560   73.1800 C   0  0  0  0  0  0  0  0  0  0  0  0
    1.6520   61.4780   73.6110 C   0  0  0  0  0  0  0  0  0  0  0  0
    1.4190   62.5680   72.7780 C   0  0  0  0  0  0  0  0  0  0  0  0
    0.5580   63.5750   73.2460 O   0  0  0  0  0  0  0  0  0  0  0  0
    0.2680   64.6990   72.4800 C   0  0  0  0  0  0  0  0  0  0  0  0
   -0.4890   65.5670   72.9070 O   0  0  0  0  0  0  0  0  0  0  0  0
    3.9570   59.6110   71.3760 O   0  0  0  0  0  0  0  0  0  0  0  0
    3.3930   58.5700   70.5950 C   0  0  0  0  0  0  0  0  0  0  0  0
    3.3390   58.9740   69.3070 F   0  0  0  0  0  0  0  0  0  0  0  0
    2.1370   58.2870   71.0010 F   0  0  0  0  0  0  0  0  0  0  0  0
    4.1490   57.4530   70.6540 F   0  0  0  0  0  0  0  0  0  0  0  0
   -1.2050   66.6250   67.3890 C   0  0  0  0  0  0  0  0  0  0  0  0
   -0.6070   67.5380   66.3140 C   0  0  0  0  0  0  0  0  0  0  0  0
    0.8590   67.2270   65.9990 C   0  0  0  0  0  0  0  0  0  0  0  0
    1.8450   67.9320   66.9330 C   0  0  0  0  0  0  0  0  0  0  0  0
    2.0620   69.3020   66.4450 N   0  0  0  0  0  0  0  0  0  0  0  0
    3.4020   69.4920   66.0000 C   0  0  0  0  0  0  0  0  0  0  0  0
    4.3790   69.8510   66.9380 C   0  0  0  0  0  0  0  0  0  0  0  0
    4.0990   70.1140   68.3950 C   0  0  0  0  0  0  0  0  0  0  0  0
    4.8650   71.3400   68.9030 C   0  0  0  0  0  0  0  0  0  0  0  0
    6.3110   71.4530   68.4000 C   0  0  0  0  0  0  0  0  0  0  0  0
    6.7610   70.2890   67.5210 C   0  0  0  0  0  0  0  0  0  0  0  0
    5.7000   69.9480   66.5080 C   0  0  0  0  0  0  0  0  0  0  0  0
    6.0940   69.7210   65.2370 N   0  0  0  0  0  0  0  0  0  0  0  0
    5.1610   69.3810   64.3350 C   0  0  0  0  0  0  0  0  0  0  0  0
    3.7910   69.2390   64.6540 C   0  0  0  0  0  0  0  0  0  0  0  0
    2.9000   68.8500   63.6200 C   0  0  0  0  0  0  0  0  0  0  0  0
    3.3470   68.6200   62.3190 C   0  0  0  0  0  0  0  0  0  0  0  0
    4.6920   68.7730   62.0230 C   0  0  0  0  0  0  0  0  0  0  0  0
    5.5810   69.1490   63.0330 C   0  0  0  0  0  0  0  0  0  0  0  0
   -1.9090   67.6098   69.1682 H   0  0  0  0  0  0  0  0  0  0  0  0
   -0.1543   67.8750   68.7707 H   0  0  0  0  0  0  0  0  0  0  0  0
   -1.3150   65.4242   70.0311 H   0  0  0  0  0  0  0  0  0  0  0  0
    2.1862   63.9190   69.7118 H   0  0  0  0  0  0  0  0  0  0  0  0
    3.3317   61.7041   70.1117 H   0  0  0  0  0  0  0  0  0  0  0  0
    2.6953   59.5905   73.8311 H   0  0  0  0  0  0  0  0  0  0  0  0
    1.1714   61.4210   74.5988 H   0  0  0  0  0  0  0  0  0  0  0  0
   -0.7416   65.6311   67.3024 H   0  0  0  0  0  0  0  0  0  0  0  0
   -2.2915   66.5869   67.2217 H   0  0  0  0  0  0  0  0  0  0  0  0
   -1.1943   67.4213   65.3913 H   0  0  0  0  0  0  0  0  0  0  0  0
   -0.6445   68.5661   66.7034 H   0  0  0  0  0  0  0  0  0  0  0  0
    1.0115   66.1412   66.0866 H   0  0  0  0  0  0  0  0  0  0  0  0
    1.0570   67.5944   64.9813 H   0  0  0  0  0  0  0  0  0  0  0  0
    1.4314   67.9635   67.9518 H   0  0  0  0  0  0  0  0  0  0  0  0
    2.7995   67.3856   66.9506 H   0  0  0  0  0  0  0  0  0  0  0  0
    1.3362   70.0327   66.4271 H   0  0  0  0  0  0  0  0  0  0  0  0
    3.0206   70.2871   68.5259 H   0  0  0  0  0  0  0  0  0  0  0  0
    4.4287   69.2380   68.9728 H   0  0  0  0  0  0  0  0  0  0  0  0
    4.3203   72.2402   68.5822 H   0  0  0  0  0  0  0  0  0  0  0  0
    4.9261   71.2343   69.9962 H   0  0  0  0  0  0  0  0  0  0  0  0
    6.4016   72.3810   67.8164 H   0  0  0  0  0  0  0  0  0  0  0  0
    6.9568   71.4445   69.2905 H   0  0  0  0  0  0  0  0  0  0  0  0
    7.6857   70.5695   66.9954 H   0  0  0  0  0  0  0  0  0  0  0  0
    6.9372   69.4105   68.1591 H   0  0  0  0  0  0  0  0  0  0  0  0
    1.8314   68.7270   63.8502 H   0  0  0  0  0  0  0  0  0  0  0  0
    2.6374   68.3195   61.5341 H   0  0  0  0  0  0  0  0  0  0  0  0
    5.0572   68.5996   61.0000 H   0  0  0  0  0  0  0  0  0  0  0  0
    6.6472   69.2647   62.7885 H   0  0  0  0  0  0  0  0  0  0  0  0
  3  2  2  0
  4  3  1  0
  4  1  1  0
  5  3  1  0
  6  5  2  0
  7  6  1  0
  8  7  2  0
  9  8  1  0
 10  9  2  0
 11 10  1  0
 12 11  2  0
 12  7  1  0
 13 12  1  0
 14 13  1  0
 14  5  1  0
 15 14  2  0
 16  9  1  0
 17 16  1  0
 18 17  1  0
 19 17  1  0
 20 17  1  0
 21  1  1  0
 22 21  1  0
 23 22  1  0
 24 23  1  0
 25 24  1  0
 26 25  1  0
 27 26  1  0
 28 27  1  0
 29 28  1  0
 30 29  1  0
 31 30  1  0
 32 27  2  0
 32 31  1  0
 33 32  1  0
 34 33  2  0
 35 34  1  0
 35 26  2  0
 36 35  1  0
 37 36  2  0
 38 37  1  0
 39 38  2  0
 39 34  1  0
  1 40  1  0
  1 41  1  0
  4 42  1  0
  6 43  1  0
  8 44  1  0
 10 45  1  0
 11 46  1  0
 21 47  1  0
 21 48  1  0
 22 49  1  0
 22 50  1  0
 23 51  1  0
 23 52  1  0
 24 53  1  0
 24 54  1  0
 25 55  1  0
 28 56  1  0
 28 57  1  0
 29 58  1  0
 29 59  1  0
 30 60  1  0
 30 61  1  0
 31 62  1  0
 31 63  1  0
 36 64  1  0
 37 65  1  0
 38 66  1  0
 39 67  1  0
M  END
>  <score>  (8) 
-11.224

$$$$
=
     RDKit          3D

 67 71  0  0  0  0  0  0  0  0999 V2000
    0.0490   66.1330   70.2430 C   0  0  0  0  0  0  0  0  0  0  0  0
    1.7330   68.1240   69.1450 O   0  0  0  0  0  0  0  0  0  0  0  0
    0.9240   67.5590   68.4130 C   0  0  0  0  0  0  0  0  0  0  0  0
    0.0770   66.5800   68.8660 N   0  0  0  0  0  0  0  0  0  0  0  0
    0.8060   67.9130   66.9620 C   0  0  0  0  0  0  0  0  0  0  0  0
    1.9320   67.8320   66.2310 C   0  0  0  0  0  0  0  0  0  0  0  0
    1.9260   68.1540   64.8150 C   0  0  0  0  0  0  0  0  0  0  0  0
    3.0780   68.0810   64.0270 C   0  0  0  0  0  0  0  0  0  0  0  0
    3.0330   68.3990   62.6610 C   0  0  0  0  0  0  0  0  0  0  0  0
    1.8220   68.7930   62.0870 C   0  0  0  0  0  0  0  0  0  0  0  0
    0.6660   68.8690   62.8700 C   0  0  0  0  0  0  0  0  0  0  0  0
    0.7360   68.5480   64.2220 C   0  0  0  0  0  0  0  0  0  0  0  0
   -0.4460   68.6360   64.9760 O   0  0  0  0  0  0  0  0  0  0  0  0
   -0.4680   68.3340   66.3340 C   0  0  0  0  0  0  0  0  0  0  0  0
   -1.5130   68.4200   66.9760 O   0  0  0  0  0  0  0  0  0  0  0  0
    4.2340   68.2820   62.0200 O   0  0  0  0  0  0  0  0  0  0  0  0
    5.2920   69.1320   62.4310 C   0  0  0  0  0  0  0  0  0  0  0  0
    5.6190   69.9460   61.4050 F   0  0  0  0  0  0  0  0  0  0  0  0
    6.3870   68.4140   62.7640 F   0  0  0  0  0  0  0  0  0  0  0  0
    4.9210   69.9000   63.4770 F   0  0  0  0  0  0  0  0  0  0  0  0
    0.9030   64.8840   70.4680 C   0  0  0  0  0  0  0  0  0  0  0  0
    0.1020   63.7050   71.0290 C   0  0  0  0  0  0  0  0  0  0  0  0
    0.0280   63.6940   72.5590 C   0  0  0  0  0  0  0  0  0  0  0  0
   -0.0230   62.2860   73.1560 C   0  0  0  0  0  0  0  0  0  0  0  0
    0.3340   61.3150   72.1110 N   0  0  0  0  0  0  0  0  0  0  0  0
    1.4860   60.5580   72.4710 C   0  0  0  0  0  0  0  0  0  0  0  0
    1.3110   59.3530   73.1630 C   0  0  0  0  0  0  0  0  0  0  0  0
   -0.0250   58.8220   73.6160 C   0  0  0  0  0  0  0  0  0  0  0  0
    0.0490   58.2430   75.0320 C   0  0  0  0  0  0  0  0  0  0  0  0
    1.3080   57.4160   75.3280 C   0  0  0  0  0  0  0  0  0  0  0  0
    2.2500   57.2610   74.1360 C   0  0  0  0  0  0  0  0  0  0  0  0
    2.4370   58.5790   73.4320 C   0  0  0  0  0  0  0  0  0  0  0  0
    3.6900   58.9260   73.0690 N   0  0  0  0  0  0  0  0  0  0  0  0
    3.8620   60.0810   72.4090 C   0  0  0  0  0  0  0  0  0  0  0  0
    2.7960   60.9450   72.0670 C   0  0  0  0  0  0  0  0  0  0  0  0
    3.0970   62.1280   71.3460 C   0  0  0  0  0  0  0  0  0  0  0  0
    4.4060   62.4490   70.9850 C   0  0  0  0  0  0  0  0  0  0  0  0
    5.4390   61.5950   71.3350 C   0  0  0  0  0  0  0  0  0  0  0  0
    5.1550   60.4230   72.0400 C   0  0  0  0  0  0  0  0  0  0  0  0
    0.4295   66.9414   70.8847 H   0  0  0  0  0  0  0  0  0  0  0  0
   -0.9916   65.8771   70.4915 H   0  0  0  0  0  0  0  0  0  0  0  0
   -0.5699   66.1419   68.1948 H   0  0  0  0  0  0  0  0  0  0  0  0
    2.8699   67.5177   66.7121 H   0  0  0  0  0  0  0  0  0  0  0  0
    4.0301   67.7710   64.4825 H   0  0  0  0  0  0  0  0  0  0  0  0
    1.7777   69.0440   61.0169 H   0  0  0  0  0  0  0  0  0  0  0  0
   -0.2892   69.1795   62.4215 H   0  0  0  0  0  0  0  0  0  0  0  0
    1.3436   64.5826   69.5062 H   0  0  0  0  0  0  0  0  0  0  0  0
    1.6735   65.1412   71.2097 H   0  0  0  0  0  0  0  0  0  0  0  0
   -0.9220   63.7579   70.6306 H   0  0  0  0  0  0  0  0  0  0  0  0
    0.6201   62.7845   70.7220 H   0  0  0  0  0  0  0  0  0  0  0  0
    0.9163   64.2082   72.9545 H   0  0  0  0  0  0  0  0  0  0  0  0
   -0.9067   64.2002   72.8420 H   0  0  0  0  0  0  0  0  0  0  0  0
    0.6912   62.2117   73.9893 H   0  0  0  0  0  0  0  0  0  0  0  0
   -1.0353   62.0757   73.5315 H   0  0  0  0  0  0  0  0  0  0  0  0
   -0.1842   61.1969   71.2287 H   0  0  0  0  0  0  0  0  0  0  0  0
   -0.7579   59.6422   73.6036 H   0  0  0  0  0  0  0  0  0  0  0  0
   -0.3254   58.0162   72.9301 H   0  0  0  0  0  0  0  0  0  0  0  0
    0.0144   59.0796   75.7453 H   0  0  0  0  0  0  0  0  0  0  0  0
   -0.8024   57.5531   75.1277 H   0  0  0  0  0  0  0  0  0  0  0  0
    1.8602   57.9079   76.1423 H   0  0  0  0  0  0  0  0  0  0  0  0
    0.9665   56.4049   75.5944 H   0  0  0  0  0  0  0  0  0  0  0  0
    3.2262   56.8996   74.4915 H   0  0  0  0  0  0  0  0  0  0  0  0
    1.8115   56.5411   73.4293 H   0  0  0  0  0  0  0  0  0  0  0  0
    2.2798   62.8085   71.0647 H   0  0  0  0  0  0  0  0  0  0  0  0
    4.6161   63.3732   70.4267 H   0  0  0  0  0  0  0  0  0  0  0  0
    6.4759   61.8381   71.0596 H   0  0  0  0  0  0  0  0  0  0  0  0
    5.9821   59.7504   72.3110 H   0  0  0  0  0  0  0  0  0  0  0  0
  3  2  2  0
  4  3  1  0
  4  1  1  0
  5  3  1  0
  6  5  2  0
  7  6  1  0
  8  7  2  0
  9  8  1  0
 10  9  2  0
 11 10  1  0
 12 11  2  0
 12  7  1  0
 13 12  1  0
 14 13  1  0
 14  5  1  0
 15 14  2  0
 16  9  1  0
 17 16  1  0
 18 17  1  0
 19 17  1  0
 20 17  1  0
 21  1  1  0
 22 21  1  0
 23 22  1  0
 24 23  1  0
 25 24  1  0
 26 25  1  0
 27 26  1  0
 28 27  1  0
 29 28  1  0
 30 29  1  0
 31 30  1  0
 32 27  2  0
 32 31  1  0
 33 32  1  0
 34 33  2  0
 35 34  1  0
 35 26  2  0
 36 35  1  0
 37 36  2  0
 38 37  1  0
 39 38  2  0
 39 34  1  0
  1 40  1  0
  1 41  1  0
  4 42  1  0
  6 43  1  0
  8 44  1  0
 10 45  1  0
 11 46  1  0
 21 47  1  0
 21 48  1  0
 22 49  1  0
 22 50  1  0
 23 51  1  0
 23 52  1  0
 24 53  1  0
 24 54  1  0
 25 55  1  0
 28 56  1  0
 28 57  1  0
 29 58  1  0
 29 59  1  0
 30 60  1  0
 30 61  1  0
 31 62  1  0
 31 63  1  0
 36 64  1  0
 37 65  1  0
 38 66  1  0
 39 67  1  0
M  END
>  <score>  (9) 
-11.207

$$$$
