=
     RDKit          3D

  7  6  0  0  0  0  0  0  0  0999 V2000
    4.0890   62.2280   70.0860 C   0  0  0  0  0  0  0  0  0  0  0  0
    3.6480   62.5800   68.3720 Cl  0  0  0  0  0  0  0  0  0  0  0  0
    2.5940   62.3040   71.0920 Cl  0  0  0  0  0  0  0  0  0  0  0  0
    5.1860   63.5440   70.6450 Cl  0  0  0  0  0  0  0  0  0  0  0  0
    4.2140   59.8950   69.4540 O   0  0  0  0  0  1  0  0  0  0  0  0
    4.7320   60.7980   70.1890 C   0  0  0  0  0  0  0  0  0  0  0  0
    5.7090   60.6500   70.9870 O   0  0  0  0  0  0  0  0  0  0  0  0
  2  1  1  0
  3  1  1  0
  4  1  1  0
  6  5  1  0
  6  1  1  0
  7  6  2  0
M  CHG  1   5  -1
M  END
>  <score>  (1) 
-4.222

$$$$
=
     RDKit          3D

  7  6  0  0  0  0  0  0  0  0999 V2000
    4.0720   62.2600   70.0410 C   0  0  0  0  0  0  0  0  0  0  0  0
    2.5450   62.3740   70.9940 Cl  0  0  0  0  0  0  0  0  0  0  0  0
    5.2240   63.5070   70.6460 Cl  0  0  0  0  0  0  0  0  0  0  0  0
    3.6760   62.6710   68.3310 Cl  0  0  0  0  0  0  0  0  0  0  0  0
    5.6930   60.7370   70.9950 O   0  0  0  0  0  1  0  0  0  0  0  0
    4.6980   60.8280   70.2060 C   0  0  0  0  0  0  0  0  0  0  0  0
    4.1700   59.8770   69.5470 O   0  0  0  0  0  0  0  0  0  0  0  0
  2  1  1  0
  3  1  1  0
  4  1  1  0
  6  5  1  0
  6  1  1  0
  7  6  2  0
M  CHG  1   5  -1
M  END
>  <score>  (2) 
-4.213

$$$$
=
     RDKit          3D

  7  6  0  0  0  0  0  0  0  0999 V2000
    3.8700   61.9940   70.5080 C   0  0  0  0  0  0  0  0  0  0  0  0
    4.9970   63.3980   70.4030 Cl  0  0  0  0  0  0  0  0  0  0  0  0
    2.7650   62.0340   69.0840 Cl  0  0  0  0  0  0  0  0  0  0  0  0
    2.8610   62.2180   71.9840 Cl  0  0  0  0  0  0  0  0  0  0  0  0
    5.8330   60.6940   71.0720 O   0  0  0  0  0  1  0  0  0  0  0  0
    4.6890   60.6520   70.5140 C   0  0  0  0  0  0  0  0  0  0  0  0
    4.1540   59.6370   69.9670 O   0  0  0  0  0  0  0  0  0  0  0  0
  2  1  1  0
  3  1  1  0
  4  1  1  0
  6  5  1  0
  6  1  1  0
  7  6  2  0
M  CHG  1   5  -1
M  END
>  <score>  (3) 
-4.192

$$$$
=
     RDKit          3D

  7  6  0  0  0  0  0  0  0  0999 V2000
    3.8660   68.3800   62.7450 C   0  0  0  0  0  0  0  0  0  0  0  0
    5.3900   69.2400   62.3070 Cl  0  0  0  0  0  0  0  0  0  0  0  0
    3.3420   68.9320   64.3800 Cl  0  0  0  0  0  0  0  0  0  0  0  0
    4.2490   66.6230   62.8630 Cl  0  0  0  0  0  0  0  0  0  0  0  0
    1.5470   68.6570   62.1080 O   0  0  0  0  0  1  0  0  0  0  0  0
    2.7480   68.7020   61.6880 C   0  0  0  0  0  0  0  0  0  0  0  0
    3.1220   68.9810   60.5050 O   0  0  0  0  0  0  0  0  0  0  0  0
  2  1  1  0
  3  1  1  0
  4  1  1  0
  6  5  1  0
  6  1  1  0
  7  6  2  0
M  CHG  1   5  -1
M  END
>  <score>  (4) 
-4.061

$$$$
=
     RDKit          3D

  7  6  0  0  0  0  0  0  0  0999 V2000
    3.9410   68.3700   62.7380 C   0  0  0  0  0  0  0  0  0  0  0  0
    3.4210   68.9700   64.3570 Cl  0  0  0  0  0  0  0  0  0  0  0  0
    4.1580   66.5820   62.8280 Cl  0  0  0  0  0  0  0  0  0  0  0  0
    5.5530   69.0940   62.3820 Cl  0  0  0  0  0  0  0  0  0  0  0  0
    1.6420   68.7060   62.0610 O   0  0  0  0  0  1  0  0  0  0  0  0
    2.8510   68.7240   61.6620 C   0  0  0  0  0  0  0  0  0  0  0  0
    3.2530   68.9980   60.4880 O   0  0  0  0  0  0  0  0  0  0  0  0
  2  1  1  0
  3  1  1  0
  4  1  1  0
  6  5  1  0
  6  1  1  0
  7  6  2  0
M  CHG  1   5  -1
M  END
>  <score>  (5) 
-4.032

$$$$
=
     RDKit          3D

  7  6  0  0  0  0  0  0  0  0999 V2000
    3.8350   68.4250   62.9590 C   0  0  0  0  0  0  0  0  0  0  0  0
    4.0970   66.6490   63.1330 Cl  0  0  0  0  0  0  0  0  0  0  0  0
    5.3700   69.1800   62.3880 Cl  0  0  0  0  0  0  0  0  0  0  0  0
    3.4830   69.0860   64.5980 Cl  0  0  0  0  0  0  0  0  0  0  0  0
    1.4970   68.5300   62.3430 O   0  0  0  0  0  1  0  0  0  0  0  0
    2.6870   68.6960   61.9200 C   0  0  0  0  0  0  0  0  0  0  0  0
    3.0270   69.0570   60.7500 O   0  0  0  0  0  0  0  0  0  0  0  0
  2  1  1  0
  3  1  1  0
  4  1  1  0
  6  5  1  0
  6  1  1  0
  7  6  2  0
M  CHG  1   5  -1
M  END
>  <score>  (6) 
-3.983

$$$$
=
     RDKit          3D

  7  6  0  0  0  0  0  0  0  0999 V2000
    3.8350   68.3790   63.1000 C   0  0  0  0  0  0  0  0  0  0  0  0
    5.3090   69.1930   62.4550 Cl  0  0  0  0  0  0  0  0  0  0  0  0
    2.4580   68.7120   61.9840 Cl  0  0  0  0  0  0  0  0  0  0  0  0
    3.4440   69.1410   64.6850 Cl  0  0  0  0  0  0  0  0  0  0  0  0
    3.3840   66.2050   64.0630 O   0  0  0  0  0  1  0  0  0  0  0  0
    4.0810   66.8300   63.2000 C   0  0  0  0  0  0  0  0  0  0  0  0
    4.9460   66.3220   62.4200 O   0  0  0  0  0  0  0  0  0  0  0  0
  2  1  1  0
  3  1  1  0
  4  1  1  0
  6  5  1  0
  6  1  1  0
  7  6  2  0
M  CHG  1   5  -1
M  END
>  <score>  (7) 
-3.954

$$$$
=
     RDKit          3D

  7  6  0  0  0  0  0  0  0  0999 V2000
    3.8360   68.3930   63.0530 C   0  0  0  0  0  0  0  0  0  0  0  0
    3.1140   68.6960   61.4280 Cl  0  0  0  0  0  0  0  0  0  0  0  0
    2.6830   68.9720   64.3120 Cl  0  0  0  0  0  0  0  0  0  0  0  0
    5.3270   69.3960   63.1790 Cl  0  0  0  0  0  0  0  0  0  0  0  0
    3.4650   66.2830   64.1810 O   0  0  0  0  0  1  0  0  0  0  0  0
    4.1040   66.8550   63.2390 C   0  0  0  0  0  0  0  0  0  0  0  0
    4.9290   66.3030   62.4450 O   0  0  0  0  0  0  0  0  0  0  0  0
  2  1  1  0
  3  1  1  0
  4  1  1  0
  6  5  1  0
  6  1  1  0
  7  6  2  0
M  CHG  1   5  -1
M  END
>  <score>  (8) 
-3.934

$$$$
=
     RDKit          3D

  7  6  0  0  0  0  0  0  0  0999 V2000
    3.9990   68.2650   62.9290 C   0  0  0  0  0  0  0  0  0  0  0  0
    3.2390   69.1030   64.3350 Cl  0  0  0  0  0  0  0  0  0  0  0  0
    5.6610   68.9240   62.6960 Cl  0  0  0  0  0  0  0  0  0  0  0  0
    3.0390   68.6850   61.4640 Cl  0  0  0  0  0  0  0  0  0  0  0  0
    4.8870   66.0580   62.4860 O   0  0  0  0  0  1  0  0  0  0  0  0
    4.0690   66.7190   63.2040 C   0  0  0  0  0  0  0  0  0  0  0  0
    3.3140   66.2500   64.1130 O   0  0  0  0  0  0  0  0  0  0  0  0
  2  1  1  0
  3  1  1  0
  4  1  1  0
  6  5  1  0
  6  1  1  0
  7  6  2  0
M  CHG  1   5  -1
M  END
>  <score>  (9) 
-3.913

$$$$
