=
     RDKit          3D

 29 30  0  0  0  0  0  0  0  0999 V2000
    3.4650   66.4360   63.7710 C   0  0  1  0  0  0  0  0  0  0  0  0
    3.2140   67.1120   65.0250 O   0  0  0  0  0  0  0  0  0  0  0  0
    3.2620   68.5290   64.7600 C   0  0  2  0  0  0  0  0  0  0  0  0
    3.7840   68.7300   63.3310 C   0  0  0  0  0  0  0  0  0  0  0  0
    4.3110   67.3700   62.9130 C   0  0  2  0  0  0  0  0  0  0  0  0
    4.7190   69.6940   63.2120 F   0  0  0  0  0  0  0  0  0  0  0  0
    2.7480   69.1020   62.5260 F   0  0  0  0  0  0  0  0  0  0  0  0
    3.9910   69.1970   65.8360 N   0  0  0  0  0  0  0  0  0  0  0  0
    5.3440   69.4280   65.7050 C   0  0  0  0  0  0  0  0  0  0  0  0
    6.0400   70.0020   66.6830 C   0  0  0  0  0  0  0  0  0  0  0  0
    5.2770   70.3540   67.8960 C   0  0  0  0  0  0  0  0  0  0  0  0
    4.0070   70.1340   68.0240 N   0  0  0  0  0  0  0  0  0  0  0  0
    3.3060   69.5470   67.0000 C   0  0  0  0  0  0  0  0  0  0  0  0
    2.0980   69.3480   67.1030 O   0  0  0  0  0  0  0  0  0  0  0  0
    5.9150   70.9470   68.9500 N   0  0  0  0  0  0  0  0  0  0  0  0
    4.1480   67.0850   61.5180 O   0  0  0  0  0  0  0  0  0  0  0  0
    4.1330   65.0890   64.0530 C   0  0  0  0  0  0  0  0  0  0  0  0
    4.3680   64.3360   62.8660 O   0  0  0  0  0  0  0  0  0  0  0  0
    2.5406   66.2106   63.2191 H   0  0  0  0  0  0  0  0  0  0  0  0
    2.2740   69.0125   64.7737 H   0  0  0  0  0  0  0  0  0  0  0  0
    5.3977   67.2792   63.0575 H   0  0  0  0  0  0  0  0  0  0  0  0
    5.8561   69.1331   64.7772 H   0  0  0  0  0  0  0  0  0  0  0  0
    7.1179   70.2019   66.5928 H   0  0  0  0  0  0  0  0  0  0  0  0
    5.3865   71.1945   69.7987 H   0  0  0  0  0  0  0  0  0  0  0  0
    6.9241   71.1462   68.8952 H   0  0  0  0  0  0  0  0  0  0  0  0
    3.6594   66.2307   61.4106 H   0  0  0  0  0  0  0  0  0  0  0  0
    5.0965   65.2708   64.5517 H   0  0  0  0  0  0  0  0  0  0  0  0
    3.4515   64.5052   64.6891 H   0  0  0  0  0  0  0  0  0  0  0  0
    4.6540   63.4196   63.1078 H   0  0  0  0  0  0  0  0  0  0  0  0
  2  1  1  0
  3  2  1  0
  4  3  1  0
  5  4  1  0
  5  1  1  0
  6  4  1  0
  7  4  1  0
  8  3  1  0
  9  8  1  0
 10  9  2  0
 11 10  1  0
 12 11  2  0
 13 12  1  0
 13  8  1  0
 14 13  2  0
 15 11  1  0
 16  5  1  0
 17  1  1  0
 18 17  1  0
  1 19  1  6
  3 20  1  6
  5 21  1  1
  9 22  1  0
 10 23  1  0
 15 24  1  0
 15 25  1  0
 16 26  1  0
 17 27  1  0
 17 28  1  0
 18 29  1  0
M  END
>  <score>  (1) 
-8.565

$$$$
=
     RDKit          3D

 29 30  0  0  0  0  0  0  0  0999 V2000
    2.6190   68.2910   61.9510 C   0  0  1  0  0  0  0  0  0  0  0  0
    2.8300   67.7190   63.2630 O   0  0  0  0  0  0  0  0  0  0  0  0
    1.5690   67.7820   63.9610 C   0  0  2  0  0  0  0  0  0  0  0  0
    0.6010   68.6280   63.1220 C   0  0  0  0  0  0  0  0  0  0  0  0
    1.4710   69.2870   62.0680 C   0  0  2  0  0  0  0  0  0  0  0  0
   -0.1050   69.5310   63.8320 F   0  0  0  0  0  0  0  0  0  0  0  0
   -0.3140   67.8070   62.5320 F   0  0  0  0  0  0  0  0  0  0  0  0
    1.8000   68.2050   65.3400 N   0  0  0  0  0  0  0  0  0  0  0  0
    2.8190   69.0880   65.6230 C   0  0  0  0  0  0  0  0  0  0  0  0
    3.0750   69.4630   66.8740 C   0  0  0  0  0  0  0  0  0  0  0  0
    2.2140   68.8680   67.9140 C   0  0  0  0  0  0  0  0  0  0  0  0
    1.2580   68.0340   67.6510 N   0  0  0  0  0  0  0  0  0  0  0  0
    1.0070   67.6660   66.3530 C   0  0  0  0  0  0  0  0  0  0  0  0
    0.0930   66.8870   66.0900 O   0  0  0  0  0  0  0  0  0  0  0  0
    2.4090   69.1970   69.2260 N   0  0  0  0  0  0  0  0  0  0  0  0
    0.8170   69.4770   60.8080 O   0  0  0  0  0  0  0  0  0  0  0  0
    3.9270   68.9150   61.4610 C   0  0  0  0  0  0  0  0  0  0  0  0
    3.8380   69.3880   60.1190 O   0  0  0  0  0  0  0  0  0  0  0  0
    2.3386   67.5374   61.2003 H   0  0  0  0  0  0  0  0  0  0  0  0
    1.0763   66.8043   64.0669 H   0  0  0  0  0  0  0  0  0  0  0  0
    1.7672   70.3087   62.3481 H   0  0  0  0  0  0  0  0  0  0  0  0
    3.4308   69.4895   64.8017 H   0  0  0  0  0  0  0  0  0  0  0  0
    3.8791   70.1729   67.1177 H   0  0  0  0  0  0  0  0  0  0  0  0
    1.8101   68.7838   69.9551 H   0  0  0  0  0  0  0  0  0  0  0  0
    3.1549   69.8581   69.4858 H   0  0  0  0  0  0  0  0  0  0  0  0
   -0.1222   69.7499   60.9615 H   0  0  0  0  0  0  0  0  0  0  0  0
    4.1817   69.7606   62.1168 H   0  0  0  0  0  0  0  0  0  0  0  0
    4.7008   68.1337   61.4890 H   0  0  0  0  0  0  0  0  0  0  0  0
    3.6549   70.3609   60.1235 H   0  0  0  0  0  0  0  0  0  0  0  0
  2  1  1  0
  3  2  1  0
  4  3  1  0
  5  4  1  0
  5  1  1  0
  6  4  1  0
  7  4  1  0
  8  3  1  0
  9  8  1  0
 10  9  2  0
 11 10  1  0
 12 11  2  0
 13 12  1  0
 13  8  1  0
 14 13  2  0
 15 11  1  0
 16  5  1  0
 17  1  1  0
 18 17  1  0
  1 19  1  6
  3 20  1  1
  5 21  1  1
  9 22  1  0
 10 23  1  0
 15 24  1  0
 15 25  1  0
 16 26  1  0
 17 27  1  0
 17 28  1  0
 18 29  1  0
M  END
>  <score>  (2) 
-8.456

$$$$
=
     RDKit          3D

 29 30  0  0  0  0  0  0  0  0999 V2000
   -0.2610   67.9640   66.5100 C   0  0  1  0  0  0  0  0  0  0  0  0
    0.2840   67.3720   65.3090 O   0  0  0  0  0  0  0  0  0  0  0  0
    1.7050   67.6180   65.3220 C   0  0  2  0  0  0  0  0  0  0  0  0
    2.0110   68.5920   66.4680 C   0  0  0  0  0  0  0  0  0  0  0  0
    0.6560   69.1150   66.9070 C   0  0  2  0  0  0  0  0  0  0  0  0
    2.8560   69.5890   66.1390 F   0  0  0  0  0  0  0  0  0  0  0  0
    2.6050   67.9080   67.4880 F   0  0  0  0  0  0  0  0  0  0  0  0
    2.1410   68.0080   63.9830 N   0  0  0  0  0  0  0  0  0  0  0  0
    1.2920   68.7280   63.1700 C   0  0  0  0  0  0  0  0  0  0  0  0
    1.6490   69.0660   61.9320 C   0  0  0  0  0  0  0  0  0  0  0  0
    2.9850   68.6130   61.5010 C   0  0  0  0  0  0  0  0  0  0  0  0
    3.7830   67.9320   62.2610 N   0  0  0  0  0  0  0  0  0  0  0  0
    3.3980   67.6000   63.5360 C   0  0  0  0  0  0  0  0  0  0  0  0
    4.1520   66.9680   64.2720 O   0  0  0  0  0  0  0  0  0  0  0  0
    3.4300   68.9150   60.2450 N   0  0  0  0  0  0  0  0  0  0  0  0
    0.5650   69.3930   68.3090 O   0  0  0  0  0  0  0  0  0  0  0  0
   -1.7060   68.3920   66.2470 C   0  0  0  0  0  0  0  0  0  0  0  0
   -1.9030   69.7920   66.4280 O   0  0  0  0  0  0  0  0  0  0  0  0
   -0.2996   67.2556   67.3507 H   0  0  0  0  0  0  0  0  0  0  0  0
    2.3031   66.7213   65.5412 H   0  0  0  0  0  0  0  0  0  0  0  0
    0.4121   70.0843   66.4477 H   0  0  0  0  0  0  0  0  0  0  0  0
    0.3041   69.0282   63.5495 H   0  0  0  0  0  0  0  0  0  0  0  0
    0.9883   69.6471   61.2718 H   0  0  0  0  0  0  0  0  0  0  0  0
    4.3621   68.6009   59.9395 H   0  0  0  0  0  0  0  0  0  0  0  0
    2.8333   69.4568   59.6036 H   0  0  0  0  0  0  0  0  0  0  0  0
    0.8283   68.5887   68.8227 H   0  0  0  0  0  0  0  0  0  0  0  0
   -1.9684   68.1300   65.2114 H   0  0  0  0  0  0  0  0  0  0  0  0
   -2.3465   67.8683   66.9719 H   0  0  0  0  0  0  0  0  0  0  0  0
   -1.9321   69.9988   67.3957 H   0  0  0  0  0  0  0  0  0  0  0  0
  2  1  1  0
  3  2  1  0
  4  3  1  0
  5  4  1  0
  5  1  1  0
  6  4  1  0
  7  4  1  0
  8  3  1  0
  9  8  1  0
 10  9  2  0
 11 10  1  0
 12 11  2  0
 13 12  1  0
 13  8  1  0
 14 13  2  0
 15 11  1  0
 16  5  1  0
 17  1  1  0
 18 17  1  0
  1 19  1  1
  3 20  1  1
  5 21  1  6
  9 22  1  0
 10 23  1  0
 15 24  1  0
 15 25  1  0
 16 26  1  0
 17 27  1  0
 17 28  1  0
 18 29  1  0
M  END
>  <score>  (3) 
-8.274

$$$$
=
     RDKit          3D

 29 30  0  0  0  0  0  0  0  0999 V2000
    4.4680   67.5700   64.1330 C   0  0  1  0  0  0  0  0  0  0  0  0
    3.5490   68.2120   65.0460 O   0  0  0  0  0  0  0  0  0  0  0  0
    2.6550   67.1920   65.5370 C   0  0  2  0  0  0  0  0  0  0  0  0
    2.8960   65.9140   64.7220 C   0  0  0  0  0  0  0  0  0  0  0  0
    3.7550   66.3540   63.5510 C   0  0  2  0  0  0  0  0  0  0  0  0
    1.7700   65.2920   64.3180 F   0  0  0  0  0  0  0  0  0  0  0  0
    3.5740   65.0150   65.4910 F   0  0  0  0  0  0  0  0  0  0  0  0
    1.2920   67.7160   65.5660 N   0  0  0  0  0  0  0  0  0  0  0  0
    0.8090   68.4270   64.4880 C   0  0  0  0  0  0  0  0  0  0  0  0
   -0.4170   68.9470   64.5010 C   0  0  0  0  0  0  0  0  0  0  0  0
   -1.1990   68.7210   65.7320 C   0  0  0  0  0  0  0  0  0  0  0  0
   -0.7460   68.0570   66.7480 N   0  0  0  0  0  0  0  0  0  0  0  0
    0.5180   67.5230   66.7110 C   0  0  0  0  0  0  0  0  0  0  0  0
    0.9530   66.8780   67.6620 O   0  0  0  0  0  0  0  0  0  0  0  0
   -2.4660   69.2210   65.8310 N   0  0  0  0  0  0  0  0  0  0  0  0
    4.6920   65.3640   63.1100 O   0  0  0  0  0  0  0  0  0  0  0  0
    4.9150   68.5830   63.0770 C   0  0  0  0  0  0  0  0  0  0  0  0
    5.6380   67.9760   62.0090 O   0  0  0  0  0  0  0  0  0  0  0  0
    5.3848   67.2210   64.6307 H   0  0  0  0  0  0  0  0  0  0  0  0
    2.8469   66.9059   66.5817 H   0  0  0  0  0  0  0  0  0  0  0  0
    3.1607   66.5504   62.6464 H   0  0  0  0  0  0  0  0  0  0  0  0
    1.4467   68.5671   63.6027 H   0  0  0  0  0  0  0  0  0  0  0  0
   -0.8217   69.5101   63.6471 H   0  0  0  0  0  0  0  0  0  0  0  0
   -3.0154   69.0657   66.6883 H   0  0  0  0  0  0  0  0  0  0  0  0
   -2.8722   69.7534   65.0484 H   0  0  0  0  0  0  0  0  0  0  0  0
    5.1053   64.9273   63.8965 H   0  0  0  0  0  0  0  0  0  0  0  0
    4.0238   69.0776   62.6633 H   0  0  0  0  0  0  0  0  0  0  0  0
    5.5863   69.3030   63.5679 H   0  0  0  0  0  0  0  0  0  0  0  0
    6.3410   67.3858   62.3799 H   0  0  0  0  0  0  0  0  0  0  0  0
  2  1  1  0
  3  2  1  0
  4  3  1  0
  5  4  1  0
  5  1  1  0
  6  4  1  0
  7  4  1  0
  8  3  1  0
  9  8  1  0
 10  9  2  0
 11 10  1  0
 12 11  2  0
 13 12  1  0
 13  8  1  0
 14 13  2  0
 15 11  1  0
 16  5  1  0
 17  1  1  0
 18 17  1  0
  1 19  1  1
  3 20  1  1
  5 21  1  6
  9 22  1  0
 10 23  1  0
 15 24  1  0
 15 25  1  0
 16 26  1  0
 17 27  1  0
 17 28  1  0
 18 29  1  0
M  END
>  <score>  (4) 
-8.207

$$$$
=
     RDKit          3D

 29 30  0  0  0  0  0  0  0  0999 V2000
    1.6520   63.4590   72.0510 C   0  0  1  0  0  0  0  0  0  0  0  0
    2.5570   62.3650   72.3270 O   0  0  0  0  0  0  0  0  0  0  0  0
    3.0800   61.9170   71.0600 C   0  0  2  0  0  0  0  0  0  0  0  0
    2.2950   62.6190   69.9440 C   0  0  0  0  0  0  0  0  0  0  0  0
    1.1060   63.2530   70.6420 C   0  0  2  0  0  0  0  0  0  0  0  0
    1.9160   61.8070   68.9360 F   0  0  0  0  0  0  0  0  0  0  0  0
    3.0810   63.5820   69.3830 F   0  0  0  0  0  0  0  0  0  0  0  0
    3.1070   60.4560   71.0380 N   0  0  0  0  0  0  0  0  0  0  0  0
    2.3790   59.7440   71.9660 C   0  0  0  0  0  0  0  0  0  0  0  0
    2.4130   58.4130   71.9920 C   0  0  0  0  0  0  0  0  0  0  0  0
    3.2780   57.7720   70.9840 C   0  0  0  0  0  0  0  0  0  0  0  0
    3.9680   58.4390   70.1130 N   0  0  0  0  0  0  0  0  0  0  0  0
    3.9130   59.8100   70.1000 C   0  0  0  0  0  0  0  0  0  0  0  0
    4.5500   60.4530   69.2690 O   0  0  0  0  0  0  0  0  0  0  0  0
    3.3730   56.4090   70.9400 N   0  0  0  0  0  0  0  0  0  0  0  0
    0.6820   64.4920   70.0620 O   0  0  0  0  0  0  0  0  0  0  0  0
    0.5680   63.4970   73.1290 C   0  0  0  0  0  0  0  0  0  0  0  0
   -0.2880   64.6310   73.0050 O   0  0  0  0  0  0  0  0  0  0  0  0
    2.1508   64.4389   72.0828 H   0  0  0  0  0  0  0  0  0  0  0  0
    4.1295   62.2010   70.8929 H   0  0  0  0  0  0  0  0  0  0  0  0
    0.2016   62.6300   70.5789 H   0  0  0  0  0  0  0  0  0  0  0  0
    1.7596   60.2838   72.6974 H   0  0  0  0  0  0  0  0  0  0  0  0
    1.8320   57.8280   72.7201 H   0  0  0  0  0  0  0  0  0  0  0  0
    3.9759   55.9572   70.2377 H   0  0  0  0  0  0  0  0  0  0  0  0
    2.8417   55.8338   71.6092 H   0  0  0  0  0  0  0  0  0  0  0  0
    0.4619   65.1351   70.7818 H   0  0  0  0  0  0  0  0  0  0  0  0
   -0.0415   62.5848   73.0483 H   0  0  0  0  0  0  0  0  0  0  0  0
    1.0705   63.5636   74.1052 H   0  0  0  0  0  0  0  0  0  0  0  0
   -0.5350   64.9582   73.9062 H   0  0  0  0  0  0  0  0  0  0  0  0
  2  1  1  0
  3  2  1  0
  4  3  1  0
  5  4  1  0
  5  1  1  0
  6  4  1  0
  7  4  1  0
  8  3  1  0
  9  8  1  0
 10  9  2  0
 11 10  1  0
 12 11  2  0
 13 12  1  0
 13  8  1  0
 14 13  2  0
 15 11  1  0
 16  5  1  0
 17  1  1  0
 18 17  1  0
  1 19  1  6
  3 20  1  1
  5 21  1  1
  9 22  1  0
 10 23  1  0
 15 24  1  0
 15 25  1  0
 16 26  1  0
 17 27  1  0
 17 28  1  0
 18 29  1  0
M  END
>  <score>  (5) 
-7.86

$$$$
=
     RDKit          3D

 29 30  0  0  0  0  0  0  0  0999 V2000
    0.5230   68.6670   65.8840 C   0  0  1  0  0  0  0  0  0  0  0  0
    1.8750   68.1580   65.8140 O   0  0  0  0  0  0  0  0  0  0  0  0
    2.2440   68.1230   64.4190 C   0  0  2  0  0  0  0  0  0  0  0  0
    0.9890   68.4160   63.5860 C   0  0  0  0  0  0  0  0  0  0  0  0
   -0.1640   68.3160   64.5680 C   0  0  2  0  0  0  0  0  0  0  0  0
    0.8220   67.5970   62.5270 F   0  0  0  0  0  0  0  0  0  0  0  0
    1.0710   69.6800   63.0820 F   0  0  0  0  0  0  0  0  0  0  0  0
    2.9560   66.8790   64.1380 N   0  0  0  0  0  0  0  0  0  0  0  0
    2.6680   65.7460   64.8680 C   0  0  0  0  0  0  0  0  0  0  0  0
    3.3250   64.6080   64.6570 C   0  0  0  0  0  0  0  0  0  0  0  0
    4.3710   64.6510   63.6170 C   0  0  0  0  0  0  0  0  0  0  0  0
    4.6470   65.7160   62.9330 N   0  0  0  0  0  0  0  0  0  0  0  0
    3.9520   66.8770   63.1610 C   0  0  0  0  0  0  0  0  0  0  0  0
    4.1940   67.8900   62.5080 O   0  0  0  0  0  0  0  0  0  0  0  0
    5.0950   63.5270   63.3370 N   0  0  0  0  0  0  0  0  0  0  0  0
   -1.2450   69.2140   64.2910 O   0  0  0  0  0  0  0  0  0  0  0  0
   -0.1700   68.0800   67.1140 C   0  0  0  0  0  0  0  0  0  0  0  0
    0.4890   66.9190   67.6120 O   0  0  0  0  0  0  0  0  0  0  0  0
    0.4877   69.7598   66.0046 H   0  0  0  0  0  0  0  0  0  0  0  0
    2.9638   68.9048   64.1350 H   0  0  0  0  0  0  0  0  0  0  0  0
   -0.6506   67.3298   64.5441 H   0  0  0  0  0  0  0  0  0  0  0  0
    1.8826   65.7829   65.6373 H   0  0  0  0  0  0  0  0  0  0  0  0
    3.1020   63.6916   65.2231 H   0  0  0  0  0  0  0  0  0  0  0  0
    5.8260   63.5526   62.6118 H   0  0  0  0  0  0  0  0  0  0  0  0
    4.9099   62.6538   63.8510 H   0  0  0  0  0  0  0  0  0  0  0  0
   -1.6329   69.5362   65.1429 H   0  0  0  0  0  0  0  0  0  0  0  0
   -0.1869   68.8427   67.9064 H   0  0  0  0  0  0  0  0  0  0  0  0
   -1.1861   67.7838   66.8144 H   0  0  0  0  0  0  0  0  0  0  0  0
    0.4806   66.9338   68.6019 H   0  0  0  0  0  0  0  0  0  0  0  0
  2  1  1  0
  3  2  1  0
  4  3  1  0
  5  4  1  0
  5  1  1  0
  6  4  1  0
  7  4  1  0
  8  3  1  0
  9  8  1  0
 10  9  2  0
 11 10  1  0
 12 11  2  0
 13 12  1  0
 13  8  1  0
 14 13  2  0
 15 11  1  0
 16  5  1  0
 17  1  1  0
 18 17  1  0
  1 19  1  1
  3 20  1  1
  5 21  1  1
  9 22  1  0
 10 23  1  0
 15 24  1  0
 15 25  1  0
 16 26  1  0
 17 27  1  0
 17 28  1  0
 18 29  1  0
M  END
>  <score>  (6) 
-7.704

$$$$
=
     RDKit          3D

 29 30  0  0  0  0  0  0  0  0999 V2000
    4.1190   66.5130   63.5760 C   0  0  1  0  0  0  0  0  0  0  0  0
    2.6760   66.5990   63.5500 O   0  0  0  0  0  0  0  0  0  0  0  0
    2.3300   67.9860   63.7450 C   0  0  2  0  0  0  0  0  0  0  0  0
    3.6070   68.7480   64.1260 C   0  0  0  0  0  0  0  0  0  0  0  0
    4.6290   67.6680   64.4310 C   0  0  2  0  0  0  0  0  0  0  0  0
    3.4550   69.6050   65.1550 F   0  0  0  0  0  0  0  0  0  0  0  0
    4.0150   69.4960   63.0620 F   0  0  0  0  0  0  0  0  0  0  0  0
    1.1990   68.0780   64.6650 N   0  0  0  0  0  0  0  0  0  0  0  0
    1.2750   67.4770   65.9030 C   0  0  0  0  0  0  0  0  0  0  0  0
    0.2470   67.5140   66.7490 C   0  0  0  0  0  0  0  0  0  0  0  0
   -0.9570   68.2200   66.2690 C   0  0  0  0  0  0  0  0  0  0  0  0
   -1.0320   68.7820   65.1040 N   0  0  0  0  0  0  0  0  0  0  0  0
    0.0420   68.7380   64.2500 C   0  0  0  0  0  0  0  0  0  0  0  0
   -0.0110   69.2800   63.1490 O   0  0  0  0  0  0  0  0  0  0  0  0
   -2.0580   68.3050   67.0720 N   0  0  0  0  0  0  0  0  0  0  0  0
    5.9720   68.0210   64.0800 O   0  0  0  0  0  0  0  0  0  0  0  0
    4.5290   65.1350   64.0980 C   0  0  0  0  0  0  0  0  0  0  0  0
    4.4420   64.1230   63.0970 O   0  0  0  0  0  0  0  0  0  0  0  0
    4.5666   66.6080   62.5757 H   0  0  0  0  0  0  0  0  0  0  0  0
    1.9646   68.4798   62.8325 H   0  0  0  0  0  0  0  0  0  0  0  0
    4.7040   67.4536   65.5073 H   0  0  0  0  0  0  0  0  0  0  0  0
    2.1995   66.9585   66.1970 H   0  0  0  0  0  0  0  0  0  0  0  0
    0.2925   67.0472   67.7440 H   0  0  0  0  0  0  0  0  0  0  0  0
   -2.9002   68.7968   66.7408 H   0  0  0  0  0  0  0  0  0  0  0  0
   -2.0463   67.8773   68.0089 H   0  0  0  0  0  0  0  0  0  0  0  0
    6.5026   68.1605   64.9041 H   0  0  0  0  0  0  0  0  0  0  0  0
    5.5677   65.1883   64.4562 H   0  0  0  0  0  0  0  0  0  0  0  0
    3.8350   64.8645   64.9075 H   0  0  0  0  0  0  0  0  0  0  0  0
    4.3658   63.2361   63.5302 H   0  0  0  0  0  0  0  0  0  0  0  0
  2  1  1  0
  3  2  1  0
  4  3  1  0
  5  4  1  0
  5  1  1  0
  6  4  1  0
  7  4  1  0
  8  3  1  0
  9  8  1  0
 10  9  2  0
 11 10  1  0
 12 11  2  0
 13 12  1  0
 13  8  1  0
 14 13  2  0
 15 11  1  0
 16  5  1  0
 17  1  1  0
 18 17  1  0
  1 19  1  6
  3 20  1  6
  5 21  1  1
  9 22  1  0
 10 23  1  0
 15 24  1  0
 15 25  1  0
 16 26  1  0
 17 27  1  0
 17 28  1  0
 18 29  1  0
M  END
>  <score>  (7) 
-7.686

$$$$
=
     RDKit          3D

 29 30  0  0  0  0  0  0  0  0999 V2000
    3.8990   58.8110   71.4740 C   0  0  1  0  0  0  0  0  0  0  0  0
    3.6600   59.9120   70.5670 O   0  0  0  0  0  0  0  0  0  0  0  0
    3.9930   61.1240   71.2740 C   0  0  2  0  0  0  0  0  0  0  0  0
    4.2360   60.7670   72.7470 C   0  0  0  0  0  0  0  0  0  0  0  0
    3.7270   59.3450   72.8930 C   0  0  2  0  0  0  0  0  0  0  0  0
    3.6500   61.6060   73.6250 F   0  0  0  0  0  0  0  0  0  0  0  0
    5.5740   60.8180   73.0040 F   0  0  0  0  0  0  0  0  0  0  0  0
    2.9830   62.1410   70.9930 N   0  0  0  0  0  0  0  0  0  0  0  0
    1.6720   61.9250   71.3620 C   0  0  0  0  0  0  0  0  0  0  0  0
    0.7250   62.8180   71.0870 C   0  0  0  0  0  0  0  0  0  0  0  0
    1.1680   64.0250   70.3630 C   0  0  0  0  0  0  0  0  0  0  0  0
    2.3970   64.2290   70.0110 N   0  0  0  0  0  0  0  0  0  0  0  0
    3.3610   63.2980   70.3110 C   0  0  0  0  0  0  0  0  0  0  0  0
    4.5330   63.4880   69.9960 O   0  0  0  0  0  0  0  0  0  0  0  0
    0.2590   64.9930   70.0390 N   0  0  0  0  0  0  0  0  0  0  0  0
    4.4620   58.5570   73.8370 O   0  0  0  0  0  0  0  0  0  0  0  0
    2.9470   57.6630   71.1320 C   0  0  0  0  0  0  0  0  0  0  0  0
    3.6250   56.5390   70.5750 O   0  0  0  0  0  0  0  0  0  0  0  0
    4.9166   58.4030   71.3843 H   0  0  0  0  0  0  0  0  0  0  0  0
    4.9313   61.5866   70.9339 H   0  0  0  0  0  0  0  0  0  0  0  0
    2.7001   59.3053   73.2853 H   0  0  0  0  0  0  0  0  0  0  0  0
    1.4048   60.9991   71.8924 H   0  0  0  0  0  0  0  0  0  0  0  0
   -0.3239   62.6659   71.3813 H   0  0  0  0  0  0  0  0  0  0  0  0
    0.5637   65.8372   69.5337 H   0  0  0  0  0  0  0  0  0  0  0  0
   -0.7307   64.8782   70.3002 H   0  0  0  0  0  0  0  0  0  0  0  0
    4.2118   58.8253   74.7565 H   0  0  0  0  0  0  0  0  0  0  0  0
    2.4332   57.3451   72.0512 H   0  0  0  0  0  0  0  0  0  0  0  0
    2.2359   58.0317   70.3781 H   0  0  0  0  0  0  0  0  0  0  0  0
    3.9702   55.9667   71.3053 H   0  0  0  0  0  0  0  0  0  0  0  0
  2  1  1  0
  3  2  1  0
  4  3  1  0
  5  4  1  0
  5  1  1  0
  6  4  1  0
  7  4  1  0
  8  3  1  0
  9  8  1  0
 10  9  2  0
 11 10  1  0
 12 11  2  0
 13 12  1  0
 13  8  1  0
 14 13  2  0
 15 11  1  0
 16  5  1  0
 17  1  1  0
 18 17  1  0
  1 19  1  1
  3 20  1  6
  5 21  1  1
  9 22  1  0
 10 23  1  0
 15 24  1  0
 15 25  1  0
 16 26  1  0
 17 27  1  0
 17 28  1  0
 18 29  1  0
M  END
>  <score>  (8) 
-7.37

$$$$
=
     RDKit          3D

 29 30  0  0  0  0  0  0  0  0999 V2000
    5.1750   68.6390   64.5300 C   0  0  1  0  0  0  0  0  0  0  0  0
    3.9760   68.2510   65.2390 O   0  0  0  0  0  0  0  0  0  0  0  0
    3.1720   67.4800   64.3220 C   0  0  2  0  0  0  0  0  0  0  0  0
    3.8030   67.5870   62.9270 C   0  0  0  0  0  0  0  0  0  0  0  0
    4.8280   68.7000   63.0470 C   0  0  2  0  0  0  0  0  0  0  0  0
    2.9200   67.8170   61.9350 F   0  0  0  0  0  0  0  0  0  0  0  0
    4.4200   66.4090   62.6250 F   0  0  0  0  0  0  0  0  0  0  0  0
    1.7730   67.8790   64.4530 N   0  0  0  0  0  0  0  0  0  0  0  0
    1.2200   68.7460   63.5350 C   0  0  0  0  0  0  0  0  0  0  0  0
   -0.0420   69.1540   63.6490 C   0  0  0  0  0  0  0  0  0  0  0  0
   -0.7850   68.6330   64.8120 C   0  0  0  0  0  0  0  0  0  0  0  0
   -0.2660   67.8220   65.6790 N   0  0  0  0  0  0  0  0  0  0  0  0
    1.0350   67.4080   65.5390 C   0  0  0  0  0  0  0  0  0  0  0  0
    1.5330   66.6270   66.3460 O   0  0  0  0  0  0  0  0  0  0  0  0
   -2.0860   69.0020   65.0060 N   0  0  0  0  0  0  0  0  0  0  0  0
    5.9910   68.5110   62.2320 O   0  0  0  0  0  0  0  0  0  0  0  0
    5.6850   69.9660   65.0960 C   0  0  0  0  0  0  0  0  0  0  0  0
    5.0430   70.3220   66.3180 O   0  0  0  0  0  0  0  0  0  0  0  0
    5.9940   67.9158   64.6576 H   0  0  0  0  0  0  0  0  0  0  0  0
    3.1590   66.4034   64.5474 H   0  0  0  0  0  0  0  0  0  0  0  0
    4.4385   69.6682   62.6994 H   0  0  0  0  0  0  0  0  0  0  0  0
    1.8314   69.1065   62.6947 H   0  0  0  0  0  0  0  0  0  0  0  0
   -0.5025   69.8377   62.9207 H   0  0  0  0  0  0  0  0  0  0  0  0
   -2.6084   68.6405   65.8167 H   0  0  0  0  0  0  0  0  0  0  0  0
   -2.5445   69.6417   64.3415 H   0  0  0  0  0  0  0  0  0  0  0  0
    6.7830   68.3823   62.8119 H   0  0  0  0  0  0  0  0  0  0  0  0
    6.7664   69.8793   65.2780 H   0  0  0  0  0  0  0  0  0  0  0  0
    5.4600   70.7515   64.3595 H   0  0  0  0  0  0  0  0  0  0  0  0
    5.5941   70.0164   67.0815 H   0  0  0  0  0  0  0  0  0  0  0  0
  2  1  1  0
  3  2  1  0
  4  3  1  0
  5  4  1  0
  5  1  1  0
  6  4  1  0
  7  4  1  0
  8  3  1  0
  9  8  1  0
 10  9  2  0
 11 10  1  0
 12 11  2  0
 13 12  1  0
 13  8  1  0
 14 13  2  0
 15 11  1  0
 16  5  1  0
 17  1  1  0
 18 17  1  0
  1 19  1  6
  3 20  1  1
  5 21  1  1
  9 22  1  0
 10 23  1  0
 15 24  1  0
 15 25  1  0
 16 26  1  0
 17 27  1  0
 17 28  1  0
 18 29  1  0
M  END
>  <score>  (9) 
-7.207

$$$$
